REMARK  Name = ../refined-set-2016/4h3j/4h3j_pocket.pdb
REMARK  215 active torsions:
REMARK  status: ('A' for Active; 'I' for Inactive)
REMARK    1  A    between atoms: _1  and  _3
REMARK    2  A    between atoms: _3  and  _4
REMARK    3  A    between atoms: _3  and  _6
REMARK    4  A    between atoms: _6  and  _7
REMARK    5  A    between atoms: _7  and  _8
REMARK    6  A    between atoms: _8  and  _9
REMARK    7  A    between atoms: _9  and  _10
REMARK    8  A    between atoms: _14  and  _16
REMARK    9  A    between atoms: _16  and  _17
REMARK   10  A    between atoms: _16  and  _19
REMARK   11  A    between atoms: _19  and  _20
REMARK   12  A    between atoms: _22  and  _24
REMARK   13  A    between atoms: _24  and  _25
REMARK   14  A    between atoms: _27  and  _29
REMARK   15  A    between atoms: _29  and  _30
REMARK   16  A    between atoms: _29  and  _32
REMARK   17  A    between atoms: _32  and  _33
REMARK   18  A    between atoms: _33  and  _34
REMARK   19  A    between atoms: _39  and  _41
REMARK   20  A    between atoms: _41  and  _42
REMARK   21  A    between atoms: _44  and  _46
REMARK   22  A    between atoms: _46  and  _47
REMARK   23  A    between atoms: _46  and  _49
REMARK   24  A    between atoms: _49  and  _50
REMARK   25  A    between atoms: _55  and  _56
REMARK   26  A    between atoms: _58  and  _60
REMARK   27  A    between atoms: _60  and  _61
REMARK   28  A    between atoms: _60  and  _63
REMARK   29  A    between atoms: _63  and  _64
REMARK   30  A    between atoms: _67  and  _69
REMARK   31  A    between atoms: _69  and  _70
REMARK   32  A    between atoms: _69  and  _72
REMARK   33  A    between atoms: _75  and  _77
REMARK   34  A    between atoms: _77  and  _78
REMARK   35  A    between atoms: _77  and  _80
REMARK   36  A    between atoms: _80  and  _81
REMARK   37  A    between atoms: _84  and  _86
REMARK   38  A    between atoms: _86  and  _87
REMARK   39  A    between atoms: _86  and  _89
REMARK   40  A    between atoms: _89  and  _90
REMARK   41  A    between atoms: _93  and  _95
REMARK   42  A    between atoms: _95  and  _96
REMARK   43  A    between atoms: _98  and  _100
REMARK   44  A    between atoms: _100  and  _101
REMARK   45  A    between atoms: _100  and  _103
REMARK   46  A    between atoms: _103  and  _104
REMARK   47  A    between atoms: _106  and  _108
REMARK   48  A    between atoms: _108  and  _109
REMARK   49  A    between atoms: _108  and  _111
REMARK   50  A    between atoms: _111  and  _112
REMARK   51  A    between atoms: _114  and  _116
REMARK   52  A    between atoms: _116  and  _117
REMARK   53  A    between atoms: _116  and  _119
REMARK   54  A    between atoms: _119  and  _120
REMARK   55  A    between atoms: _125  and  _127
REMARK   56  A    between atoms: _127  and  _128
REMARK   57  A    between atoms: _127  and  _130
REMARK   58  A    between atoms: _130  and  _131
REMARK   59  A    between atoms: _137  and  _139
REMARK   60  A    between atoms: _139  and  _140
REMARK   61  A    between atoms: _143  and  _145
REMARK   62  A    between atoms: _145  and  _146
REMARK   63  A    between atoms: _145  and  _148
REMARK   64  A    between atoms: _151  and  _153
REMARK   65  A    between atoms: _153  and  _154
REMARK   66  A    between atoms: _153  and  _156
REMARK   67  A    between atoms: _156  and  _157
REMARK   68  A    between atoms: _162  and  _163
REMARK   69  A    between atoms: _165  and  _167
REMARK   70  A    between atoms: _167  and  _168
REMARK   71  A    between atoms: _167  and  _170
REMARK   72  A    between atoms: _174  and  _175
REMARK   73  A    between atoms: _180  and  _182
REMARK   74  A    between atoms: _182  and  _183
REMARK   75  A    between atoms: _182  and  _185
REMARK   76  A    between atoms: _185  and  _186
REMARK   77  A    between atoms: _191  and  _192
REMARK   78  A    between atoms: _194  and  _196
REMARK   79  A    between atoms: _196  and  _197
REMARK   80  A    between atoms: _196  and  _199
REMARK   81  A    between atoms: _199  and  _200
REMARK   82  A    between atoms: _203  and  _205
REMARK   83  A    between atoms: _205  and  _206
REMARK   84  A    between atoms: _205  and  _208
REMARK   85  A    between atoms: _208  and  _209
REMARK   86  A    between atoms: _209  and  _210
REMARK   87  A    between atoms: _215  and  _217
REMARK   88  A    between atoms: _217  and  _218
REMARK   89  A    between atoms: _220  and  _222
REMARK   90  A    between atoms: _222  and  _223
REMARK   91  A    between atoms: _222  and  _225
REMARK   92  A    between atoms: _225  and  _226
REMARK   93  A    between atoms: _226  and  _227
REMARK   94  A    between atoms: _227  and  _228
REMARK   95  A    between atoms: _228  and  _229
REMARK   96  A    between atoms: _233  and  _235
REMARK   97  A    between atoms: _235  and  _236
REMARK   98  A    between atoms: _235  and  _238
REMARK   99  A    between atoms: _238  and  _239
REMARK  100  A    between atoms: _249  and  _251
REMARK  101  A    between atoms: _251  and  _252
REMARK  102  A    between atoms: _255  and  _257
REMARK  103  A    between atoms: _257  and  _258
REMARK  104  A    between atoms: _257  and  _260
REMARK  105  A    between atoms: _260  and  _261
REMARK  106  A    between atoms: _261  and  _262
REMARK  107  A    between atoms: _262  and  _263
REMARK  108  A    between atoms: _263  and  _264
REMARK  109  A    between atoms: _268  and  _270
REMARK  110  A    between atoms: _270  and  _271
REMARK  111  A    between atoms: _270  and  _273
REMARK  112  A    between atoms: _273  and  _274
REMARK  113  A    between atoms: _280  and  _282
REMARK  114  A    between atoms: _282  and  _283
REMARK  115  A    between atoms: _282  and  _285
REMARK  116  A    between atoms: _285  and  _286
REMARK  117  A    between atoms: _292  and  _294
REMARK  118  A    between atoms: _294  and  _295
REMARK  119  A    between atoms: _294  and  _297
REMARK  120  A    between atoms: _297  and  _298
REMARK  121  A    between atoms: _301  and  _303
REMARK  122  A    between atoms: _303  and  _304
REMARK  123  A    between atoms: _303  and  _306
REMARK  124  A    between atoms: _306  and  _307
REMARK  125  A    between atoms: _309  and  _311
REMARK  126  A    between atoms: _311  and  _312
REMARK  127  A    between atoms: _311  and  _314
REMARK  128  A    between atoms: _314  and  _315
REMARK  129  A    between atoms: _325  and  _327
REMARK  130  A    between atoms: _327  and  _328
REMARK  131  A    between atoms: _330  and  _332
REMARK  132  A    between atoms: _332  and  _333
REMARK  133  A    between atoms: _332  and  _335
REMARK  134  A    between atoms: _335  and  _336
REMARK  135  A    between atoms: _339  and  _341
REMARK  136  A    between atoms: _341  and  _342
REMARK  137  A    between atoms: _341  and  _344
REMARK  138  A    between atoms: _344  and  _345
REMARK  139  A    between atoms: _348  and  _350
REMARK  140  A    between atoms: _350  and  _351
REMARK  141  A    between atoms: _353  and  _355
REMARK  142  A    between atoms: _355  and  _356
REMARK  143  A    between atoms: _355  and  _358
REMARK  144  A    between atoms: _358  and  _359
REMARK  145  A    between atoms: _362  and  _364
REMARK  146  A    between atoms: _364  and  _365
REMARK  147  A    between atoms: _364  and  _367
REMARK  148  A    between atoms: _367  and  _368
REMARK  149  A    between atoms: _371  and  _373
REMARK  150  A    between atoms: _373  and  _374
REMARK  151  A    between atoms: _377  and  _379
REMARK  152  A    between atoms: _379  and  _380
REMARK  153  A    between atoms: _379  and  _382
REMARK  154  A    between atoms: _382  and  _383
REMARK  155  A    between atoms: _383  and  _384
REMARK  156  A    between atoms: _384  and  _385
REMARK  157  A    between atoms: _395  and  _396
REMARK  158  A    between atoms: _401  and  _403
REMARK  159  A    between atoms: _403  and  _404
REMARK  160  A    between atoms: _403  and  _406
REMARK  161  A    between atoms: _406  and  _407
REMARK  162  A    between atoms: _410  and  _412
REMARK  163  A    between atoms: _412  and  _413
REMARK  164  A    between atoms: _412  and  _415
REMARK  165  A    between atoms: _415  and  _416
REMARK  166  A    between atoms: _421  and  _422
REMARK  167  A    between atoms: _424  and  _426
REMARK  168  A    between atoms: _426  and  _427
REMARK  169  A    between atoms: _426  and  _429
REMARK  170  A    between atoms: _429  and  _430
REMARK  171  A    between atoms: _433  and  _435
REMARK  172  A    between atoms: _435  and  _436
REMARK  173  A    between atoms: _435  and  _438
REMARK  174  A    between atoms: _441  and  _443
REMARK  175  A    between atoms: _443  and  _444
REMARK  176  A    between atoms: _443  and  _446
REMARK  177  A    between atoms: _446  and  _447
REMARK  178  A    between atoms: _450  and  _452
REMARK  179  A    between atoms: _452  and  _453
REMARK  180  A    between atoms: _452  and  _455
REMARK  181  A    between atoms: _455  and  _456
REMARK  182  A    between atoms: _458  and  _460
REMARK  183  A    between atoms: _460  and  _461
REMARK  184  A    between atoms: _463  and  _465
REMARK  185  A    between atoms: _465  and  _466
REMARK  186  A    between atoms: _465  and  _468
REMARK  187  A    between atoms: _468  and  _469
REMARK  188  A    between atoms: _472  and  _474
REMARK  189  A    between atoms: _474  and  _475
REMARK  190  A    between atoms: _474  and  _477
REMARK  191  A    between atoms: _477  and  _478
REMARK  192  A    between atoms: _481  and  _483
REMARK  193  A    between atoms: _483  and  _484
REMARK  194  A    between atoms: _483  and  _486
REMARK  195  A    between atoms: _486  and  _487
REMARK  196  A    between atoms: _492  and  _494
REMARK  197  A    between atoms: _494  and  _495
REMARK  198  A    between atoms: _494  and  _497
REMARK  199  A    between atoms: _497  and  _498
REMARK  200  A    between atoms: _498  and  _499
REMARK  201  A    between atoms: _499  and  _500
REMARK  202  A    between atoms: _509  and  _511
REMARK  203  A    between atoms: _511  and  _512
REMARK  204  A    between atoms: _511  and  _514
REMARK  205  A    between atoms: _514  and  _515
REMARK  206  A    between atoms: _518  and  _520
REMARK  207  A    between atoms: _520  and  _521
REMARK  208  A    between atoms: _520  and  _523
REMARK  209  A    between atoms: _526  and  _528
REMARK  210  A    between atoms: _528  and  _529
REMARK  211  A    between atoms: _531  and  _533
REMARK  212  A    between atoms: _533  and  _534
REMARK  213  A    between atoms: _537  and  _539
REMARK  214  A    between atoms: _539  and  _540
REMARK  215  A    between atoms: _539  and  _542
REMARK                            x       y       z     vdW  Elec       q    Type
REMARK                         _______ _______ _______ _____ _____    ______ ____
ROOT
ATOM      1  CA  GLN A   4      33.365  10.138  19.212  0.00  0.00    +0.149 C 
ENDROOT
BRANCH   1   3
ATOM      2  C   GLY A   3      33.951  11.751  20.945  0.00  0.00    +0.243 C 
ATOM      3  N   GLN A   4      34.035  10.511  20.457  0.00  0.00    -0.297 N 
ATOM      4  H   GLN A   4      34.588   9.797  20.972  0.00  0.00    +0.150 HD
ATOM      5  O   GLY A   3      33.303  12.635  20.402  0.00  0.00    -0.273 OA
BRANCH   2   6
ATOM      6  CA  GLY A   3      34.690  12.042  22.239  0.00  0.00    +0.176 C 
BRANCH   6   9
ATOM      7  C   SER A   2      34.359  10.107  23.620  0.00  0.00    +0.243 C 
ATOM      8  O   SER A   2      33.148  10.321  23.665  0.00  0.00    -0.273 OA
ATOM      9  N   GLY A   3      35.201  10.879  22.943  0.00  0.00    -0.295 N 
ATOM     10  H   GLY A   3      36.216  10.653  22.917  0.00  0.00    +0.150 HD
BRANCH   7  11
ATOM     11  CA  SER A   2      34.942   8.906  24.341  0.00  0.00    +0.178 C 
BRANCH  11  13
ATOM     12  C   LYS A   1      35.754   7.706  22.406  0.00  0.00    +0.238 C 
ATOM     13  N   SER A   2      35.979   8.157  23.639  0.00  0.00    -0.295 N 
ATOM     14  H   SER A   2      36.893   7.975  24.101  0.00  0.00    +0.150 HD
ATOM     15  O   LYS A   1      34.713   7.954  21.809  0.00  0.00    -0.274 OA
BRANCH  12  16
ATOM     16  CA  LYS A   1      36.831   6.837  21.752  0.00  0.00    +0.145 C 
BRANCH  16  17
ATOM     17  N   LYS A   1      36.212   6.133  20.623  0.00  0.00    -0.238 NA
ATOM     18  H   LYS A   1      35.341   6.524  20.210  0.00  0.00    +0.142 HD
ENDBRANCH  16  17
BRANCH  16  19
ATOM     19  CB  LYS A   1      38.038   7.666  21.287  0.00  0.00    +0.026 C 
BRANCH  19  20
ATOM     20  CG  LYS A   1      37.769   8.691  20.192  0.00  0.00    -0.000 C 
BRANCH  20  21
ATOM     21  CD  LYS A   1      39.100   9.296  19.748  0.00  0.00    -0.024 C 
BRANCH  21  22
ATOM     22  CE  LYS A   1      38.918  10.411  18.737  0.00  0.00    -0.086 C 
BRANCH  22  23
ATOM     23  NZ  LYS A   1      40.239  11.004  18.366  0.00  0.00    +0.380 N 
ATOM     24  HZ1 LYS A   1      40.695  11.391  19.217  0.00  0.00    -0.089 HD
ATOM     25  HZ2 LYS A   1      40.844  10.267  17.951  0.00  0.00    -0.089 HD
ATOM     26  HZ3 LYS A   1      40.093  11.766  17.673  0.00  0.00    -0.089 HD
ENDBRANCH  22  23
ENDBRANCH  21  22
ENDBRANCH  20  21
ENDBRANCH  19  20
ENDBRANCH  16  19
ENDBRANCH  12  16
ENDBRANCH  11  13
BRANCH  11  27
ATOM     27  CB  SER A   2      35.438   9.333  25.731  0.00  0.00    +0.166 C 
BRANCH  27  28
ATOM     28  OG  SER A   2      36.557  10.200  25.629  0.00  0.00    -0.380 OA
ATOM     29  H   SER A   2      36.856  10.459  26.536  0.00  0.00    +0.211 HD
ENDBRANCH  27  28
ENDBRANCH  11  27
ENDBRANCH   7  11
ENDBRANCH   6   9
ENDBRANCH   2   6
ENDBRANCH   1   3
BRANCH   1  30
ATOM     30  C   GLN A   4      32.302   9.074  19.418  0.00  0.00    +0.241 C 
ATOM     31  N   GLY A   5      32.309   8.459  20.594  0.00  0.00    -0.295 N 
ATOM     32  H   GLY A   5      32.990   8.752  21.324  0.00  0.00    +0.150 HD
ATOM     33  O   GLN A   4      31.491   8.827  18.521  0.00  0.00    -0.273 OA
BRANCH  31  34
ATOM     34  CA  GLY A   5      31.377   7.383  20.872  0.00  0.00    +0.176 C 
BRANCH  34  35
ATOM     35  C   GLY A   5      32.042   6.063  20.505  0.00  0.00    +0.243 C 
ATOM     36  N   TYR A   6      31.474   4.955  20.981  0.00  0.00    -0.298 N 
ATOM     37  H   TYR A   6      30.625   5.051  21.574  0.00  0.00    +0.150 HD
ATOM     38  O   GLY A   5      33.060   6.047  19.814  0.00  0.00    -0.273 OA
BRANCH  36  39
ATOM     39  CA  TYR A   6      31.986   3.606  20.711  0.00  0.00    +0.141 C 
BRANCH  39  40
ATOM     40  C   TYR A   6      30.951   2.869  19.877  0.00  0.00    +0.227 C 
ATOM     41  O   TYR A   6      29.762   2.915  20.196  0.00  0.00    -0.286 OA
ENDBRANCH  39  40
BRANCH  39  42
ATOM     42  CB  TYR A   6      32.216   2.873  22.036  0.00  0.00    +0.054 C 
BRANCH  42  43
ATOM     43  CG  TYR A   6      33.424   3.398  22.788  0.00  0.00    -0.020 A 
ATOM     44  CD2 TYR A   6      33.328   4.490  23.653  0.00  0.00    -0.001 A 
ATOM     45  CE2 TYR A   6      34.456   4.990  24.302  0.00  0.00    +0.036 A 
ATOM     46  CZ  TYR A   6      35.687   4.392  24.085  0.00  0.00    +0.134 A 
ATOM     47  CE1 TYR A   6      35.800   3.317  23.237  0.00  0.00    +0.036 A 
ATOM     48  CD1 TYR A   6      34.674   2.826  22.596  0.00  0.00    -0.001 A 
BRANCH  46  49
ATOM     49  OH  TYR A   6      36.824   4.854  24.724  0.00  0.00    -0.506 OA
ATOM     50  HH  TYR A   6      36.588   5.626  25.297  0.00  0.00    +0.292 HD
ENDBRANCH  46  49
ENDBRANCH  42  43
ENDBRANCH  39  42
ENDBRANCH  36  39
ENDBRANCH  34  35
ENDBRANCH  31  34
ENDBRANCH   1  30
BRANCH   1  51
ATOM     51  CB  GLN A   4      34.355   9.555  18.205  0.00  0.00    +0.039 C 
BRANCH  51  52
ATOM     52  CG  GLN A   4      35.352  10.519  17.604  0.00  0.00    +0.087 C 
BRANCH  52  53
ATOM     53  CD  GLN A   4      36.186   9.839  16.523  0.00  0.00    +0.219 C 
ATOM     54  OE1 GLN A   4      36.651   8.713  16.696  0.00  0.00    -0.275 OA
ATOM     55  NE2 GLN A   4      36.374  10.526  15.400  0.00  0.00    -0.329 N 
ATOM     56 HE21 GLN A   4      35.962  11.475  15.296  0.00  0.00    +0.145 HD
ATOM     57 HE22 GLN A   4      36.933  10.114  14.626  0.00  0.00    +0.145 HD
ENDBRANCH  52  53
ENDBRANCH  51  52
ENDBRANCH   1  51
TORSDOF 25
REMARK  Name = ../refined-set-2016/4h3j/4h3j_pocket.pdb
REMARK  215 active torsions:
REMARK  status: ('A' for Active; 'I' for Inactive)
REMARK    1  A    between atoms: _1  and  _3
REMARK    2  A    between atoms: _3  and  _4
REMARK    3  A    between atoms: _3  and  _6
REMARK    4  A    between atoms: _6  and  _7
REMARK    5  A    between atoms: _7  and  _8
REMARK    6  A    between atoms: _8  and  _9
REMARK    7  A    between atoms: _9  and  _10
REMARK    8  A    between atoms: _14  and  _16
REMARK    9  A    between atoms: _16  and  _17
REMARK   10  A    between atoms: _16  and  _19
REMARK   11  A    between atoms: _19  and  _20
REMARK   12  A    between atoms: _22  and  _24
REMARK   13  A    between atoms: _24  and  _25
REMARK   14  A    between atoms: _27  and  _29
REMARK   15  A    between atoms: _29  and  _30
REMARK   16  A    between atoms: _29  and  _32
REMARK   17  A    between atoms: _32  and  _33
REMARK   18  A    between atoms: _33  and  _34
REMARK   19  A    between atoms: _39  and  _41
REMARK   20  A    between atoms: _41  and  _42
REMARK   21  A    between atoms: _44  and  _46
REMARK   22  A    between atoms: _46  and  _47
REMARK   23  A    between atoms: _46  and  _49
REMARK   24  A    between atoms: _49  and  _50
REMARK   25  A    between atoms: _55  and  _56
REMARK   26  A    between atoms: _58  and  _60
REMARK   27  A    between atoms: _60  and  _61
REMARK   28  A    between atoms: _60  and  _63
REMARK   29  A    between atoms: _63  and  _64
REMARK   30  A    between atoms: _67  and  _69
REMARK   31  A    between atoms: _69  and  _70
REMARK   32  A    between atoms: _69  and  _72
REMARK   33  A    between atoms: _75  and  _77
REMARK   34  A    between atoms: _77  and  _78
REMARK   35  A    between atoms: _77  and  _80
REMARK   36  A    between atoms: _80  and  _81
REMARK   37  A    between atoms: _84  and  _86
REMARK   38  A    between atoms: _86  and  _87
REMARK   39  A    between atoms: _86  and  _89
REMARK   40  A    between atoms: _89  and  _90
REMARK   41  A    between atoms: _93  and  _95
REMARK   42  A    between atoms: _95  and  _96
REMARK   43  A    between atoms: _98  and  _100
REMARK   44  A    between atoms: _100  and  _101
REMARK   45  A    between atoms: _100  and  _103
REMARK   46  A    between atoms: _103  and  _104
REMARK   47  A    between atoms: _106  and  _108
REMARK   48  A    between atoms: _108  and  _109
REMARK   49  A    between atoms: _108  and  _111
REMARK   50  A    between atoms: _111  and  _112
REMARK   51  A    between atoms: _114  and  _116
REMARK   52  A    between atoms: _116  and  _117
REMARK   53  A    between atoms: _116  and  _119
REMARK   54  A    between atoms: _119  and  _120
REMARK   55  A    between atoms: _125  and  _127
REMARK   56  A    between atoms: _127  and  _128
REMARK   57  A    between atoms: _127  and  _130
REMARK   58  A    between atoms: _130  and  _131
REMARK   59  A    between atoms: _137  and  _139
REMARK   60  A    between atoms: _139  and  _140
REMARK   61  A    between atoms: _143  and  _145
REMARK   62  A    between atoms: _145  and  _146
REMARK   63  A    between atoms: _145  and  _148
REMARK   64  A    between atoms: _151  and  _153
REMARK   65  A    between atoms: _153  and  _154
REMARK   66  A    between atoms: _153  and  _156
REMARK   67  A    between atoms: _156  and  _157
REMARK   68  A    between atoms: _162  and  _163
REMARK   69  A    between atoms: _165  and  _167
REMARK   70  A    between atoms: _167  and  _168
REMARK   71  A    between atoms: _167  and  _170
REMARK   72  A    between atoms: _174  and  _175
REMARK   73  A    between atoms: _180  and  _182
REMARK   74  A    between atoms: _182  and  _183
REMARK   75  A    between atoms: _182  and  _185
REMARK   76  A    between atoms: _185  and  _186
REMARK   77  A    between atoms: _191  and  _192
REMARK   78  A    between atoms: _194  and  _196
REMARK   79  A    between atoms: _196  and  _197
REMARK   80  A    between atoms: _196  and  _199
REMARK   81  A    between atoms: _199  and  _200
REMARK   82  A    between atoms: _203  and  _205
REMARK   83  A    between atoms: _205  and  _206
REMARK   84  A    between atoms: _205  and  _208
REMARK   85  A    between atoms: _208  and  _209
REMARK   86  A    between atoms: _209  and  _210
REMARK   87  A    between atoms: _215  and  _217
REMARK   88  A    between atoms: _217  and  _218
REMARK   89  A    between atoms: _220  and  _222
REMARK   90  A    between atoms: _222  and  _223
REMARK   91  A    between atoms: _222  and  _225
REMARK   92  A    between atoms: _225  and  _226
REMARK   93  A    between atoms: _226  and  _227
REMARK   94  A    between atoms: _227  and  _228
REMARK   95  A    between atoms: _228  and  _229
REMARK   96  A    between atoms: _233  and  _235
REMARK   97  A    between atoms: _235  and  _236
REMARK   98  A    between atoms: _235  and  _238
REMARK   99  A    between atoms: _238  and  _239
REMARK  100  A    between atoms: _249  and  _251
REMARK  101  A    between atoms: _251  and  _252
REMARK  102  A    between atoms: _255  and  _257
REMARK  103  A    between atoms: _257  and  _258
REMARK  104  A    between atoms: _257  and  _260
REMARK  105  A    between atoms: _260  and  _261
REMARK  106  A    between atoms: _261  and  _262
REMARK  107  A    between atoms: _262  and  _263
REMARK  108  A    between atoms: _263  and  _264
REMARK  109  A    between atoms: _268  and  _270
REMARK  110  A    between atoms: _270  and  _271
REMARK  111  A    between atoms: _270  and  _273
REMARK  112  A    between atoms: _273  and  _274
REMARK  113  A    between atoms: _280  and  _282
REMARK  114  A    between atoms: _282  and  _283
REMARK  115  A    between atoms: _282  and  _285
REMARK  116  A    between atoms: _285  and  _286
REMARK  117  A    between atoms: _292  and  _294
REMARK  118  A    between atoms: _294  and  _295
REMARK  119  A    between atoms: _294  and  _297
REMARK  120  A    between atoms: _297  and  _298
REMARK  121  A    between atoms: _301  and  _303
REMARK  122  A    between atoms: _303  and  _304
REMARK  123  A    between atoms: _303  and  _306
REMARK  124  A    between atoms: _306  and  _307
REMARK  125  A    between atoms: _309  and  _311
REMARK  126  A    between atoms: _311  and  _312
REMARK  127  A    between atoms: _311  and  _314
REMARK  128  A    between atoms: _314  and  _315
REMARK  129  A    between atoms: _325  and  _327
REMARK  130  A    between atoms: _327  and  _328
REMARK  131  A    between atoms: _330  and  _332
REMARK  132  A    between atoms: _332  and  _333
REMARK  133  A    between atoms: _332  and  _335
REMARK  134  A    between atoms: _335  and  _336
REMARK  135  A    between atoms: _339  and  _341
REMARK  136  A    between atoms: _341  and  _342
REMARK  137  A    between atoms: _341  and  _344
REMARK  138  A    between atoms: _344  and  _345
REMARK  139  A    between atoms: _348  and  _350
REMARK  140  A    between atoms: _350  and  _351
REMARK  141  A    between atoms: _353  and  _355
REMARK  142  A    between atoms: _355  and  _356
REMARK  143  A    between atoms: _355  and  _358
REMARK  144  A    between atoms: _358  and  _359
REMARK  145  A    between atoms: _362  and  _364
REMARK  146  A    between atoms: _364  and  _365
REMARK  147  A    between atoms: _364  and  _367
REMARK  148  A    between atoms: _367  and  _368
REMARK  149  A    between atoms: _371  and  _373
REMARK  150  A    between atoms: _373  and  _374
REMARK  151  A    between atoms: _377  and  _379
REMARK  152  A    between atoms: _379  and  _380
REMARK  153  A    between atoms: _379  and  _382
REMARK  154  A    between atoms: _382  and  _383
REMARK  155  A    between atoms: _383  and  _384
REMARK  156  A    between atoms: _384  and  _385
REMARK  157  A    between atoms: _395  and  _396
REMARK  158  A    between atoms: _401  and  _403
REMARK  159  A    between atoms: _403  and  _404
REMARK  160  A    between atoms: _403  and  _406
REMARK  161  A    between atoms: _406  and  _407
REMARK  162  A    between atoms: _410  and  _412
REMARK  163  A    between atoms: _412  and  _413
REMARK  164  A    between atoms: _412  and  _415
REMARK  165  A    between atoms: _415  and  _416
REMARK  166  A    between atoms: _421  and  _422
REMARK  167  A    between atoms: _424  and  _426
REMARK  168  A    between atoms: _426  and  _427
REMARK  169  A    between atoms: _426  and  _429
REMARK  170  A    between atoms: _429  and  _430
REMARK  171  A    between atoms: _433  and  _435
REMARK  172  A    between atoms: _435  and  _436
REMARK  173  A    between atoms: _435  and  _438
REMARK  174  A    between atoms: _441  and  _443
REMARK  175  A    between atoms: _443  and  _444
REMARK  176  A    between atoms: _443  and  _446
REMARK  177  A    between atoms: _446  and  _447
REMARK  178  A    between atoms: _450  and  _452
REMARK  179  A    between atoms: _452  and  _453
REMARK  180  A    between atoms: _452  and  _455
REMARK  181  A    between atoms: _455  and  _456
REMARK  182  A    between atoms: _458  and  _460
REMARK  183  A    between atoms: _460  and  _461
REMARK  184  A    between atoms: _463  and  _465
REMARK  185  A    between atoms: _465  and  _466
REMARK  186  A    between atoms: _465  and  _468
REMARK  187  A    between atoms: _468  and  _469
REMARK  188  A    between atoms: _472  and  _474
REMARK  189  A    between atoms: _474  and  _475
REMARK  190  A    between atoms: _474  and  _477
REMARK  191  A    between atoms: _477  and  _478
REMARK  192  A    between atoms: _481  and  _483
REMARK  193  A    between atoms: _483  and  _484
REMARK  194  A    between atoms: _483  and  _486
REMARK  195  A    between atoms: _486  and  _487
REMARK  196  A    between atoms: _492  and  _494
REMARK  197  A    between atoms: _494  and  _495
REMARK  198  A    between atoms: _494  and  _497
REMARK  199  A    between atoms: _497  and  _498
REMARK  200  A    between atoms: _498  and  _499
REMARK  201  A    between atoms: _499  and  _500
REMARK  202  A    between atoms: _509  and  _511
REMARK  203  A    between atoms: _511  and  _512
REMARK  204  A    between atoms: _511  and  _514
REMARK  205  A    between atoms: _514  and  _515
REMARK  206  A    between atoms: _518  and  _520
REMARK  207  A    between atoms: _520  and  _521
REMARK  208  A    between atoms: _520  and  _523
REMARK  209  A    between atoms: _526  and  _528
REMARK  210  A    between atoms: _528  and  _529
REMARK  211  A    between atoms: _531  and  _533
REMARK  212  A    between atoms: _533  and  _534
REMARK  213  A    between atoms: _537  and  _539
REMARK  214  A    between atoms: _539  and  _540
REMARK  215  A    between atoms: _539  and  _542
REMARK                            x       y       z     vdW  Elec       q    Type
REMARK                         _______ _______ _______ _____ _____    ______ ____
ROOT
ATOM      1  CA  SER A   6      18.267   5.950  24.238  0.00  0.00    +0.178 C 
ENDROOT
BRANCH   1   4
ATOM      2  C   GLY A   5      19.760   6.751  25.976  0.00  0.00    +0.243 C 
ATOM      3  O   GLY A   5      19.099   7.786  26.065  0.00  0.00    -0.273 OA
ATOM      4  N   SER A   6      19.465   5.813  25.081  0.00  0.00    -0.295 N 
ATOM      5  H   SER A   6      20.081   4.982  24.977  0.00  0.00    +0.150 HD
BRANCH   2   6
ATOM      6  CA  GLY A   5      20.979   6.528  26.865  0.00  0.00    +0.176 C 
BRANCH   6   9
ATOM      7  C   THR A   4      21.680   4.208  27.192  0.00  0.00    +0.243 C 
ATOM      8  O   THR A   4      20.886   4.024  28.116  0.00  0.00    -0.273 OA
ATOM      9  N   GLY A   5      21.791   5.364  26.529  0.00  0.00    -0.295 N 
ATOM     10  H   GLY A   5      22.477   5.435  25.750  0.00  0.00    +0.150 HD
BRANCH   7  11
ATOM     11  CA  THR A   4      22.598   3.063  26.737  0.00  0.00    +0.176 C 
BRANCH  11  13
ATOM     12  C   ASP A   3      23.005   3.555  24.419  0.00  0.00    +0.241 C 
ATOM     13  N   THR A   4      23.486   3.484  25.658  0.00  0.00    -0.295 N 
ATOM     14  H   THR A   4      24.479   3.725  25.854  0.00  0.00    +0.150 HD
ATOM     15  O   ASP A   3      21.830   3.298  24.152  0.00  0.00    -0.273 OA
BRANCH  12  16
ATOM     16  CA  ASP A   3      23.971   4.006  23.326  0.00  0.00    +0.160 C 
BRANCH  16  19
ATOM     17  C   VAL A   2      25.861   2.815  22.328  0.00  0.00    +0.241 C 
ATOM     18  O   VAL A   2      26.693   3.529  22.901  0.00  0.00    -0.273 OA
ATOM     19  N   ASP A   3      24.541   2.916  22.522  0.00  0.00    -0.297 N 
ATOM     20  H   ASP A   3      23.907   2.210  22.096  0.00  0.00    +0.150 HD
BRANCH  17  21
ATOM     21  CA  VAL A   2      26.304   1.726  21.355  0.00  0.00    +0.148 C 
BRANCH  21  23
ATOM     22  C   LEU A   1      26.269   2.880  19.197  0.00  0.00    +0.238 C 
ATOM     23  N   VAL A   2      26.955   2.401  20.237  0.00  0.00    -0.297 N 
ATOM     24  H   VAL A   2      27.989   2.513  20.251  0.00  0.00    +0.150 HD
ATOM     25  O   LEU A   1      25.046   2.782  19.104  0.00  0.00    -0.274 OA
BRANCH  22  26
ATOM     26  CA  LEU A   1      27.073   3.587  18.103  0.00  0.00    +0.145 C 
BRANCH  26  27
ATOM     27  N   LEU A   1      26.734   3.062  16.790  0.00  0.00    -0.238 NA
ATOM     28  H   LEU A   1      26.294   3.697  16.093  0.00  0.00    +0.142 HD
ENDBRANCH  26  27
BRANCH  26  29
ATOM     29  CB  LEU A   1      26.759   5.089  18.139  0.00  0.00    +0.026 C 
BRANCH  29  30
ATOM     30  CG  LEU A   1      27.052   5.723  19.501  0.00  0.00    +0.002 C 
ATOM     31  CD2 LEU A   1      26.141   6.903  19.756  0.00  0.00    +0.000 C 
ATOM     32  CD1 LEU A   1      28.503   6.149  19.522  0.00  0.00    +0.000 C 
ENDBRANCH  29  30
ENDBRANCH  26  29
ENDBRANCH  22  26
ENDBRANCH  21  23
BRANCH  21  33
ATOM     33  CB  VAL A   2      27.285   0.747  22.005  0.00  0.00    +0.027 C 
ATOM     34  CG2 VAL A   2      26.685   0.137  23.244  0.00  0.00    +0.002 C 
ATOM     35  CG1 VAL A   2      27.636  -0.338  20.983  0.00  0.00    +0.002 C 
ENDBRANCH  21  33
ENDBRANCH  17  21
ENDBRANCH  16  19
BRANCH  16  36
ATOM     36  CB  ASP A   3      23.272   4.966  22.347  0.00  0.00    +0.143 C 
BRANCH  36  37
ATOM     37  CG  ASP A   3      22.681   6.189  23.028  0.00  0.00    +0.367 C 
ATOM     38  OD2 ASP A   3      23.089   6.492  24.148  0.00  0.00    -0.246 OA
ATOM     39  OD1 ASP A   3      21.817   6.841  22.426  0.00  0.00    -0.246 OA
ENDBRANCH  36  37
ENDBRANCH  16  36
ENDBRANCH  12  16
ENDBRANCH  11  13
BRANCH  11  40
ATOM     40  CB  THR A   4      23.378   2.514  27.959  0.00  0.00    +0.137 C 
ATOM     41  CG2 THR A   4      24.253   1.335  27.535  0.00  0.00    +0.034 C 
BRANCH  40  42
ATOM     42  OG1 THR A   4      24.193   3.555  28.533  0.00  0.00    -0.382 OA
ATOM     43  HG1 THR A   4      23.614   4.303  28.825  0.00  0.00    +0.210 HD
ENDBRANCH  40  42
ENDBRANCH  11  40
ENDBRANCH   7  11
ENDBRANCH   6   9
ENDBRANCH   2   6
ENDBRANCH   1   4
BRANCH   1  44
ATOM     44  C   SER A   6      17.782   4.554  23.920  0.00  0.00    +0.243 C 
ATOM     45  O   SER A   6      18.450   3.575  24.278  0.00  0.00    -0.273 OA
ATOM     46  N   SER A   7      16.639   4.456  23.239  0.00  0.00    -0.295 N 
ATOM     47  H   SER A   7      16.173   5.314  22.880  0.00  0.00    +0.150 HD
BRANCH  46  48
ATOM     48  CA  SER A   7      16.044   3.149  22.998  0.00  0.00    +0.178 C 
BRANCH  48  49
ATOM     49  C   SER A   7      15.598   2.821  21.574  0.00  0.00    +0.243 C 
ATOM     50  O   SER A   7      14.841   1.864  21.383  0.00  0.00    -0.273 OA
ATOM     51  N   ASN A   8      16.062   3.594  20.600  0.00  0.00    -0.297 N 
ATOM     52  H   ASN A   8      16.672   4.401  20.842  0.00  0.00    +0.150 HD
BRANCH  51  53
ATOM     53  CA  ASN A   8      15.739   3.342  19.194  0.00  0.00    +0.158 C 
BRANCH  53  54
ATOM     54  C   ASN A   8      16.945   2.811  18.444  0.00  0.00    +0.241 C 
ATOM     55  O   ASN A   8      18.082   3.183  18.735  0.00  0.00    -0.273 OA
ATOM     56  N   PHE A   9      16.690   1.958  17.456  0.00  0.00    -0.297 N 
ATOM     57  H   PHE A   9      15.714   1.631  17.307  0.00  0.00    +0.150 HD
BRANCH  56  58
ATOM     58  CA  PHE A   9      17.749   1.468  16.574  0.00  0.00    +0.153 C 
BRANCH  58  59
ATOM     59  C   PHE A   9      17.472   2.351  15.350  0.00  0.00    +0.241 C 
ATOM     60  N   ALA A  10      18.382   3.275  15.068  0.00  0.00    -0.298 N 
ATOM     61  H   ALA A  10      19.250   3.328  15.639  0.00  0.00    +0.150 HD
ATOM     62  O   PHE A   9      16.427   2.230  14.703  0.00  0.00    -0.273 OA
BRANCH  60  63
ATOM     63  CA  ALA A  10      18.187   4.219  13.971  0.00  0.00    +0.137 C 
ATOM     64  CB  ALA A  10      17.882   5.611  14.534  0.00  0.00    +0.030 C 
BRANCH  63  65
ATOM     65  C   ALA A  10      19.439   4.260  13.137  0.00  0.00    +0.227 C 
ATOM     66  O   ALA A  10      20.544   4.380  13.674  0.00  0.00    -0.286 OA
ENDBRANCH  63  65
ENDBRANCH  60  63
ENDBRANCH  58  59
BRANCH  58  67
ATOM     67  CB  PHE A   9      17.548  -0.014  16.249  0.00  0.00    +0.055 C 
BRANCH  67  68
ATOM     68  CG  PHE A   9      18.564  -0.573  15.285  0.00  0.00    -0.020 A 
ATOM     69  CD2 PHE A   9      19.875  -0.113  15.277  0.00  0.00    -0.004 A 
ATOM     70  CE2 PHE A   9      20.812  -0.636  14.393  0.00  0.00    -0.000 A 
ATOM     71  CZ  PHE A   9      20.449  -1.632  13.497  0.00  0.00    -0.000 A 
ATOM     72  CE1 PHE A   9      19.144  -2.106  13.485  0.00  0.00    -0.000 A 
ATOM     73  CD1 PHE A   9      18.203  -1.572  14.384  0.00  0.00    -0.004 A 
ENDBRANCH  67  68
ENDBRANCH  58  67
ENDBRANCH  56  58
ENDBRANCH  53  54
BRANCH  53  74
ATOM     74  CB  ASN A   8      15.348   4.621  18.459  0.00  0.00    +0.114 C 
BRANCH  74  75
ATOM     75  CG  ASN A   8      13.952   5.071  18.762  0.00  0.00    +0.222 C 
ATOM     76  OD1 ASN A   8      13.693   5.672  19.805  0.00  0.00    -0.275 OA
ATOM     77  ND2 ASN A   8      13.025   4.781  17.842  0.00  0.00    -0.329 N 
ATOM     78 HD21 ASN A   8      12.036   5.066  17.993  0.00  0.00    +0.145 HD
ATOM     79 HD22 ASN A   8      13.293   4.271  16.976  0.00  0.00    +0.145 HD
ENDBRANCH  74  75
ENDBRANCH  53  74
ENDBRANCH  51  53
ENDBRANCH  48  49
BRANCH  48  80
ATOM     80  CB  SER A   7      14.860   2.989  23.950  0.00  0.00    +0.166 C 
BRANCH  80  81
ATOM     81  OG  SER A   7      15.280   3.234  25.295  0.00  0.00    -0.380 OA
ATOM     82  H   SER A   7      14.508   3.128  25.905  0.00  0.00    +0.211 HD
ENDBRANCH  80  81
ENDBRANCH  48  80
ENDBRANCH  46  48
ENDBRANCH   1  44
BRANCH   1  83
ATOM     83  CB  SER A   6      18.529   6.750  22.962  0.00  0.00    +0.166 C 
BRANCH  83  84
ATOM     84  OG  SER A   6      19.391   6.072  22.081  0.00  0.00    -0.380 OA
ATOM     85  H   SER A   6      20.259   5.911  22.529  0.00  0.00    +0.211 HD
ENDBRANCH  83  84
ENDBRANCH   1  83
TORSDOF 35
REMARK  Name = ../refined-set-2016/4h3j/4h3j_pocket.pdb
REMARK  215 active torsions:
REMARK  status: ('A' for Active; 'I' for Inactive)
REMARK    1  A    between atoms: _1  and  _3
REMARK    2  A    between atoms: _3  and  _4
REMARK    3  A    between atoms: _3  and  _6
REMARK    4  A    between atoms: _6  and  _7
REMARK    5  A    between atoms: _7  and  _8
REMARK    6  A    between atoms: _8  and  _9
REMARK    7  A    between atoms: _9  and  _10
REMARK    8  A    between atoms: _14  and  _16
REMARK    9  A    between atoms: _16  and  _17
REMARK   10  A    between atoms: _16  and  _19
REMARK   11  A    between atoms: _19  and  _20
REMARK   12  A    between atoms: _22  and  _24
REMARK   13  A    between atoms: _24  and  _25
REMARK   14  A    between atoms: _27  and  _29
REMARK   15  A    between atoms: _29  and  _30
REMARK   16  A    between atoms: _29  and  _32
REMARK   17  A    between atoms: _32  and  _33
REMARK   18  A    between atoms: _33  and  _34
REMARK   19  A    between atoms: _39  and  _41
REMARK   20  A    between atoms: _41  and  _42
REMARK   21  A    between atoms: _44  and  _46
REMARK   22  A    between atoms: _46  and  _47
REMARK   23  A    between atoms: _46  and  _49
REMARK   24  A    between atoms: _49  and  _50
REMARK   25  A    between atoms: _55  and  _56
REMARK   26  A    between atoms: _58  and  _60
REMARK   27  A    between atoms: _60  and  _61
REMARK   28  A    between atoms: _60  and  _63
REMARK   29  A    between atoms: _63  and  _64
REMARK   30  A    between atoms: _67  and  _69
REMARK   31  A    between atoms: _69  and  _70
REMARK   32  A    between atoms: _69  and  _72
REMARK   33  A    between atoms: _75  and  _77
REMARK   34  A    between atoms: _77  and  _78
REMARK   35  A    between atoms: _77  and  _80
REMARK   36  A    between atoms: _80  and  _81
REMARK   37  A    between atoms: _84  and  _86
REMARK   38  A    between atoms: _86  and  _87
REMARK   39  A    between atoms: _86  and  _89
REMARK   40  A    between atoms: _89  and  _90
REMARK   41  A    between atoms: _93  and  _95
REMARK   42  A    between atoms: _95  and  _96
REMARK   43  A    between atoms: _98  and  _100
REMARK   44  A    between atoms: _100  and  _101
REMARK   45  A    between atoms: _100  and  _103
REMARK   46  A    between atoms: _103  and  _104
REMARK   47  A    between atoms: _106  and  _108
REMARK   48  A    between atoms: _108  and  _109
REMARK   49  A    between atoms: _108  and  _111
REMARK   50  A    between atoms: _111  and  _112
REMARK   51  A    between atoms: _114  and  _116
REMARK   52  A    between atoms: _116  and  _117
REMARK   53  A    between atoms: _116  and  _119
REMARK   54  A    between atoms: _119  and  _120
REMARK   55  A    between atoms: _125  and  _127
REMARK   56  A    between atoms: _127  and  _128
REMARK   57  A    between atoms: _127  and  _130
REMARK   58  A    between atoms: _130  and  _131
REMARK   59  A    between atoms: _137  and  _139
REMARK   60  A    between atoms: _139  and  _140
REMARK   61  A    between atoms: _143  and  _145
REMARK   62  A    between atoms: _145  and  _146
REMARK   63  A    between atoms: _145  and  _148
REMARK   64  A    between atoms: _151  and  _153
REMARK   65  A    between atoms: _153  and  _154
REMARK   66  A    between atoms: _153  and  _156
REMARK   67  A    between atoms: _156  and  _157
REMARK   68  A    between atoms: _162  and  _163
REMARK   69  A    between atoms: _165  and  _167
REMARK   70  A    between atoms: _167  and  _168
REMARK   71  A    between atoms: _167  and  _170
REMARK   72  A    between atoms: _174  and  _175
REMARK   73  A    between atoms: _180  and  _182
REMARK   74  A    between atoms: _182  and  _183
REMARK   75  A    between atoms: _182  and  _185
REMARK   76  A    between atoms: _185  and  _186
REMARK   77  A    between atoms: _191  and  _192
REMARK   78  A    between atoms: _194  and  _196
REMARK   79  A    between atoms: _196  and  _197
REMARK   80  A    between atoms: _196  and  _199
REMARK   81  A    between atoms: _199  and  _200
REMARK   82  A    between atoms: _203  and  _205
REMARK   83  A    between atoms: _205  and  _206
REMARK   84  A    between atoms: _205  and  _208
REMARK   85  A    between atoms: _208  and  _209
REMARK   86  A    between atoms: _209  and  _210
REMARK   87  A    between atoms: _215  and  _217
REMARK   88  A    between atoms: _217  and  _218
REMARK   89  A    between atoms: _220  and  _222
REMARK   90  A    between atoms: _222  and  _223
REMARK   91  A    between atoms: _222  and  _225
REMARK   92  A    between atoms: _225  and  _226
REMARK   93  A    between atoms: _226  and  _227
REMARK   94  A    between atoms: _227  and  _228
REMARK   95  A    between atoms: _228  and  _229
REMARK   96  A    between atoms: _233  and  _235
REMARK   97  A    between atoms: _235  and  _236
REMARK   98  A    between atoms: _235  and  _238
REMARK   99  A    between atoms: _238  and  _239
REMARK  100  A    between atoms: _249  and  _251
REMARK  101  A    between atoms: _251  and  _252
REMARK  102  A    between atoms: _255  and  _257
REMARK  103  A    between atoms: _257  and  _258
REMARK  104  A    between atoms: _257  and  _260
REMARK  105  A    between atoms: _260  and  _261
REMARK  106  A    between atoms: _261  and  _262
REMARK  107  A    between atoms: _262  and  _263
REMARK  108  A    between atoms: _263  and  _264
REMARK  109  A    between atoms: _268  and  _270
REMARK  110  A    between atoms: _270  and  _271
REMARK  111  A    between atoms: _270  and  _273
REMARK  112  A    between atoms: _273  and  _274
REMARK  113  A    between atoms: _280  and  _282
REMARK  114  A    between atoms: _282  and  _283
REMARK  115  A    between atoms: _282  and  _285
REMARK  116  A    between atoms: _285  and  _286
REMARK  117  A    between atoms: _292  and  _294
REMARK  118  A    between atoms: _294  and  _295
REMARK  119  A    between atoms: _294  and  _297
REMARK  120  A    between atoms: _297  and  _298
REMARK  121  A    between atoms: _301  and  _303
REMARK  122  A    between atoms: _303  and  _304
REMARK  123  A    between atoms: _303  and  _306
REMARK  124  A    between atoms: _306  and  _307
REMARK  125  A    between atoms: _309  and  _311
REMARK  126  A    between atoms: _311  and  _312
REMARK  127  A    between atoms: _311  and  _314
REMARK  128  A    between atoms: _314  and  _315
REMARK  129  A    between atoms: _325  and  _327
REMARK  130  A    between atoms: _327  and  _328
REMARK  131  A    between atoms: _330  and  _332
REMARK  132  A    between atoms: _332  and  _333
REMARK  133  A    between atoms: _332  and  _335
REMARK  134  A    between atoms: _335  and  _336
REMARK  135  A    between atoms: _339  and  _341
REMARK  136  A    between atoms: _341  and  _342
REMARK  137  A    between atoms: _341  and  _344
REMARK  138  A    between atoms: _344  and  _345
REMARK  139  A    between atoms: _348  and  _350
REMARK  140  A    between atoms: _350  and  _351
REMARK  141  A    between atoms: _353  and  _355
REMARK  142  A    between atoms: _355  and  _356
REMARK  143  A    between atoms: _355  and  _358
REMARK  144  A    between atoms: _358  and  _359
REMARK  145  A    between atoms: _362  and  _364
REMARK  146  A    between atoms: _364  and  _365
REMARK  147  A    between atoms: _364  and  _367
REMARK  148  A    between atoms: _367  and  _368
REMARK  149  A    between atoms: _371  and  _373
REMARK  150  A    between atoms: _373  and  _374
REMARK  151  A    between atoms: _377  and  _379
REMARK  152  A    between atoms: _379  and  _380
REMARK  153  A    between atoms: _379  and  _382
REMARK  154  A    between atoms: _382  and  _383
REMARK  155  A    between atoms: _383  and  _384
REMARK  156  A    between atoms: _384  and  _385
REMARK  157  A    between atoms: _395  and  _396
REMARK  158  A    between atoms: _401  and  _403
REMARK  159  A    between atoms: _403  and  _404
REMARK  160  A    between atoms: _403  and  _406
REMARK  161  A    between atoms: _406  and  _407
REMARK  162  A    between atoms: _410  and  _412
REMARK  163  A    between atoms: _412  and  _413
REMARK  164  A    between atoms: _412  and  _415
REMARK  165  A    between atoms: _415  and  _416
REMARK  166  A    between atoms: _421  and  _422
REMARK  167  A    between atoms: _424  and  _426
REMARK  168  A    between atoms: _426  and  _427
REMARK  169  A    between atoms: _426  and  _429
REMARK  170  A    between atoms: _429  and  _430
REMARK  171  A    between atoms: _433  and  _435
REMARK  172  A    between atoms: _435  and  _436
REMARK  173  A    between atoms: _435  and  _438
REMARK  174  A    between atoms: _441  and  _443
REMARK  175  A    between atoms: _443  and  _444
REMARK  176  A    between atoms: _443  and  _446
REMARK  177  A    between atoms: _446  and  _447
REMARK  178  A    between atoms: _450  and  _452
REMARK  179  A    between atoms: _452  and  _453
REMARK  180  A    between atoms: _452  and  _455
REMARK  181  A    between atoms: _455  and  _456
REMARK  182  A    between atoms: _458  and  _460
REMARK  183  A    between atoms: _460  and  _461
REMARK  184  A    between atoms: _463  and  _465
REMARK  185  A    between atoms: _465  and  _466
REMARK  186  A    between atoms: _465  and  _468
REMARK  187  A    between atoms: _468  and  _469
REMARK  188  A    between atoms: _472  and  _474
REMARK  189  A    between atoms: _474  and  _475
REMARK  190  A    between atoms: _474  and  _477
REMARK  191  A    between atoms: _477  and  _478
REMARK  192  A    between atoms: _481  and  _483
REMARK  193  A    between atoms: _483  and  _484
REMARK  194  A    between atoms: _483  and  _486
REMARK  195  A    between atoms: _486  and  _487
REMARK  196  A    between atoms: _492  and  _494
REMARK  197  A    between atoms: _494  and  _495
REMARK  198  A    between atoms: _494  and  _497
REMARK  199  A    between atoms: _497  and  _498
REMARK  200  A    between atoms: _498  and  _499
REMARK  201  A    between atoms: _499  and  _500
REMARK  202  A    between atoms: _509  and  _511
REMARK  203  A    between atoms: _511  and  _512
REMARK  204  A    between atoms: _511  and  _514
REMARK  205  A    between atoms: _514  and  _515
REMARK  206  A    between atoms: _518  and  _520
REMARK  207  A    between atoms: _520  and  _521
REMARK  208  A    between atoms: _520  and  _523
REMARK  209  A    between atoms: _526  and  _528
REMARK  210  A    between atoms: _528  and  _529
REMARK  211  A    between atoms: _531  and  _533
REMARK  212  A    between atoms: _533  and  _534
REMARK  213  A    between atoms: _537  and  _539
REMARK  214  A    between atoms: _539  and  _540
REMARK  215  A    between atoms: _539  and  _542
REMARK                            x       y       z     vdW  Elec       q    Type
REMARK                         _______ _______ _______ _____ _____    ______ ____
ROOT
ATOM      1  C   TYR A   5      17.960  18.138  20.283  0.00  0.00    +0.241 C 
ATOM      2  O   TYR A   5      17.275  18.508  21.232  0.00  0.00    -0.273 OA
ATOM      3  N   THR A   6      19.055  17.403  20.417  0.00  0.00    -0.295 N 
ATOM      4  H   THR A   6      19.563  17.108  19.559  0.00  0.00    +0.150 HD
ENDROOT
BRANCH   1   5
ATOM      5  CA  TYR A   5      17.600  18.517  18.853  0.00  0.00    +0.153 C 
BRANCH   5   8
ATOM      6  C   PRO A   4      15.590  17.090  18.829  0.00  0.00    +0.241 C 
ATOM      7  O   PRO A   4      16.062  16.251  19.595  0.00  0.00    -0.273 OA
ATOM      8  N   TYR A   5      16.241  18.183  18.436  0.00  0.00    -0.297 N 
ATOM      9  H   TYR A   5      15.752  18.838  17.793  0.00  0.00    +0.150 HD
BRANCH   6  15
ATOM     10  C   VAL A   3      14.190  14.676  17.226  0.00  0.00    +0.244 C 
ATOM     11  N   PRO A   4      13.690  15.571  18.090  0.00  0.00    -0.272 N 
ATOM     12  CD  PRO A   4      12.599  15.282  19.038  0.00  0.00    +0.094 C 
ATOM     13  CG  PRO A   4      12.739  16.407  20.047  0.00  0.00    +0.024 C 
ATOM     14  CB  PRO A   4      13.122  17.563  19.173  0.00  0.00    +0.031 C 
ATOM     15  CA  PRO A   4      14.177  16.945  18.264  0.00  0.00    +0.152 C 
ATOM     16  O   VAL A   3      15.140  14.938  16.488  0.00  0.00    -0.273 OA
BRANCH  10  17
ATOM     17  CA  VAL A   3      13.527  13.303  17.199  0.00  0.00    +0.149 C 
BRANCH  17  20
ATOM     18  C   TYR A   2      11.528  12.914  15.875  0.00  0.00    +0.241 C 
ATOM     19  O   TYR A   2      10.815  12.841  16.875  0.00  0.00    -0.273 OA
ATOM     20  N   VAL A   3      12.836  13.129  15.929  0.00  0.00    -0.297 N 
ATOM     21  H   VAL A   3      13.380  13.174  15.044  0.00  0.00    +0.150 HD
BRANCH  18  22
ATOM     22  CA  TYR A   2      10.929  12.746  14.487  0.00  0.00    +0.153 C 
BRANCH  22  24
ATOM     23  C   VAL A   1      10.385  10.598  13.458  0.00  0.00    +0.238 C 
ATOM     24  N   TYR A   2      10.194  11.486  14.429  0.00  0.00    -0.297 N 
ATOM     25  H   TYR A   2       9.498  11.276  15.172  0.00  0.00    +0.150 HD
ATOM     26  O   VAL A   1      11.182  10.771  12.534  0.00  0.00    -0.274 OA
BRANCH  23  27
ATOM     27  CA  VAL A   1       9.518   9.347  13.523  0.00  0.00    +0.145 C 
BRANCH  27  28
ATOM     28  CB  VAL A   1      10.319   8.124  14.042  0.00  0.00    +0.025 C 
ATOM     29  CG2 VAL A   1      10.806   8.386  15.466  0.00  0.00    +0.002 C 
ATOM     30  CG1 VAL A   1      11.471   7.817  13.109  0.00  0.00    +0.002 C 
ENDBRANCH  27  28
BRANCH  27  31
ATOM     31  N   VAL A   1       9.008   9.114  12.183  0.00  0.00    -0.238 NA
ATOM     32  H   VAL A   1       9.607   9.348  11.365  0.00  0.00    +0.142 HD
ENDBRANCH  27  31
ENDBRANCH  23  27
ENDBRANCH  22  24
BRANCH  22  33
ATOM     33  CB  TYR A   2       9.986  13.918  14.190  0.00  0.00    +0.055 C 
BRANCH  33  34
ATOM     34  CG  TYR A   2      10.620  15.281  14.379  0.00  0.00    -0.020 A 
ATOM     35  CD2 TYR A   2      10.158  16.154  15.359  0.00  0.00    -0.001 A 
ATOM     36  CE2 TYR A   2      10.751  17.391  15.553  0.00  0.00    +0.036 A 
ATOM     37  CZ  TYR A   2      11.819  17.768  14.765  0.00  0.00    +0.134 A 
ATOM     38  CE1 TYR A   2      12.294  16.922  13.782  0.00  0.00    +0.036 A 
ATOM     39  CD1 TYR A   2      11.694  15.686  13.594  0.00  0.00    -0.001 A 
BRANCH  37  40
ATOM     40  OH  TYR A   2      12.427  18.986  14.972  0.00  0.00    -0.506 OA
ATOM     41  HH  TYR A   2      13.169  19.097  14.326  0.00  0.00    +0.292 HD
ENDBRANCH  37  40
ENDBRANCH  33  34
ENDBRANCH  22  33
ENDBRANCH  18  22
ENDBRANCH  17  20
BRANCH  17  42
ATOM     42  CB  VAL A   3      14.585  12.197  17.393  0.00  0.00    +0.027 C 
ATOM     43  CG2 VAL A   3      15.381  12.443  18.653  0.00  0.00    +0.002 C 
ATOM     44  CG1 VAL A   3      13.898  10.847  17.465  0.00  0.00    +0.002 C 
ENDBRANCH  17  42
ENDBRANCH  10  17
ENDBRANCH   6  15
ENDBRANCH   5   8
BRANCH   5  45
ATOM     45  CB  TYR A   5      17.840  20.019  18.700  0.00  0.00    +0.055 C 
BRANCH  45  46
ATOM     46  CG  TYR A   5      17.892  20.519  17.280  0.00  0.00    -0.020 A 
ATOM     47  CD2 TYR A   5      16.839  21.251  16.750  0.00  0.00    -0.001 A 
ATOM     48  CE2 TYR A   5      16.886  21.740  15.458  0.00  0.00    +0.036 A 
ATOM     49  CZ  TYR A   5      17.996  21.498  14.678  0.00  0.00    +0.134 A 
ATOM     50  CE1 TYR A   5      19.063  20.769  15.179  0.00  0.00    +0.036 A 
ATOM     51  CD1 TYR A   5      19.004  20.283  16.476  0.00  0.00    -0.001 A 
BRANCH  49  52
ATOM     52  OH  TYR A   5      18.028  21.986  13.395  0.00  0.00    -0.506 OA
ATOM     53  HH  TYR A   5      18.884  21.731  12.967  0.00  0.00    +0.292 HD
ENDBRANCH  49  52
ENDBRANCH  45  46
ENDBRANCH   5  45
ENDBRANCH   1   5
BRANCH   3  54
ATOM     54  CA  THR A   6      19.579  16.990  21.714  0.00  0.00    +0.176 C 
BRANCH  54  55
ATOM     55  C   THR A   6      21.075  17.114  21.446  0.00  0.00    +0.243 C 
ATOM     56  O   THR A   6      21.794  17.877  22.094  0.00  0.00    -0.273 OA
ATOM     57  N   GLN A   7      21.511  16.353  20.452  0.00  0.00    -0.297 N 
ATOM     58  H   GLN A   7      20.828  15.720  19.989  0.00  0.00    +0.150 HD
BRANCH  57  59
ATOM     59  CA  GLN A   7      22.880  16.345  19.966  0.00  0.00    +0.149 C 
BRANCH  59  60
ATOM     60  C   GLN A   7      22.659  16.083  18.494  0.00  0.00    +0.241 C 
ATOM     61  O   GLN A   7      23.070  15.060  17.937  0.00  0.00    -0.273 OA
ATOM     62  N   GLY A   8      21.975  17.045  17.885  0.00  0.00    -0.295 N 
ATOM     63  H   GLY A   8      21.695  17.888  18.426  0.00  0.00    +0.150 HD
BRANCH  62  64
ATOM     64  CA  GLY A   8      21.611  16.951  16.492  0.00  0.00    +0.176 C 
BRANCH  64  65
ATOM     65  C   GLY A   8      20.215  16.364  16.511  0.00  0.00    +0.243 C 
ATOM     66  O   GLY A   8      19.806  15.754  17.503  0.00  0.00    -0.273 OA
ATOM     67  N   LYS A   9      19.463  16.561  15.439  0.00  0.00    -0.297 N 
ATOM     68  H   LYS A   9      19.833  17.115  14.640  0.00  0.00    +0.150 HD
BRANCH  67  69
ATOM     69  CA  LYS A   9      18.126  16.007  15.376  0.00  0.00    +0.149 C 
BRANCH  69  70
ATOM     70  C   LYS A   9      18.033  15.210  14.093  0.00  0.00    +0.241 C 
ATOM     71  N   TRP A  10      17.058  14.317  14.032  0.00  0.00    -0.298 N 
ATOM     72  H   TRP A  10      16.424  14.181  14.845  0.00  0.00    +0.150 HD
ATOM     73  O   LYS A   9      18.846  15.379  13.180  0.00  0.00    -0.273 OA
BRANCH  71  74
ATOM     74  CA  TRP A  10      16.877  13.529  12.829  0.00  0.00    +0.141 C 
BRANCH  74  75
ATOM     75  C   TRP A  10      15.431  13.138  12.646  0.00  0.00    +0.227 C 
ATOM     76  O   TRP A  10      14.622  13.170  13.574  0.00  0.00    -0.286 OA
ENDBRANCH  74  75
BRANCH  74  77
ATOM     77  CB  TRP A  10      17.762  12.275  12.830  0.00  0.00    +0.056 C 
BRANCH  77  78
ATOM     78  CG  TRP A  10      17.584  11.374  14.009  0.00  0.00    -0.002 A 
ATOM     79  CD1 TRP A  10      18.317  11.378  15.159  0.00  0.00    +0.068 A 
ATOM     80  NE1 TRP A  10      17.883  10.382  16.000  0.00  0.00    -0.352 N 
ATOM     81  HE1 TRP A  10      18.277  10.170  16.939  0.00  0.00    +0.166 HD
ATOM     82  CE2 TRP A  10      16.847   9.713  15.402  0.00  0.00    +0.056 A 
ATOM     83  CZ2 TRP A  10      16.087   8.639  15.859  0.00  0.00    +0.017 A 
ATOM     84  CH2 TRP A  10      15.098   8.170  15.034  0.00  0.00    +0.001 A 
ATOM     85  CZ3 TRP A  10      14.860   8.746  13.781  0.00  0.00    +0.000 A 
ATOM     86  CE3 TRP A  10      15.614   9.810  13.325  0.00  0.00    +0.001 A 
ATOM     87  CD2 TRP A  10      16.630  10.312  14.144  0.00  0.00    +0.013 A 
ENDBRANCH  77  78
ENDBRANCH  74  77
ENDBRANCH  71  74
ENDBRANCH  69  70
BRANCH  69  88
ATOM     88  CB  LYS A   9      17.070  17.113  15.373  0.00  0.00    +0.029 C 
BRANCH  88  89
ATOM     89  CG  LYS A   9      17.078  17.979  14.130  0.00  0.00    +0.000 C 
BRANCH  89  90
ATOM     90  CD  LYS A   9      15.859  18.891  14.096  0.00  0.00    -0.024 C 
BRANCH  90  91
ATOM     91  CE  LYS A   9      15.802  19.684  12.799  0.00  0.00    -0.086 C 
BRANCH  91  92
ATOM     92  NZ  LYS A   9      14.580  20.532  12.727  0.00  0.00    +0.380 N 
ATOM     93  HZ1 LYS A   9      14.577  21.202  13.522  0.00  0.00    -0.089 HD
ATOM     94  HZ2 LYS A   9      13.736  19.927  12.779  0.00  0.00    -0.089 HD
ATOM     95  HZ3 LYS A   9      14.576  21.057  11.829  0.00  0.00    -0.089 HD
ENDBRANCH  91  92
ENDBRANCH  90  91
ENDBRANCH  89  90
ENDBRANCH  88  89
ENDBRANCH  69  88
ENDBRANCH  67  69
ENDBRANCH  64  65
ENDBRANCH  62  64
ENDBRANCH  59  60
BRANCH  59  96
ATOM     96  CB  GLN A   7      23.688  15.234  20.617  0.00  0.00    +0.039 C 
BRANCH  96  97
ATOM     97  CG  GLN A   7      24.150  15.615  22.000  0.00  0.00    +0.087 C 
BRANCH  97  98
ATOM     98  CD  GLN A   7      25.237  14.714  22.503  0.00  0.00    +0.219 C 
ATOM     99  OE1 GLN A   7      25.881  15.002  23.511  0.00  0.00    -0.275 OA
ATOM    100  NE2 GLN A   7      25.454  13.606  21.803  0.00  0.00    -0.329 N 
ATOM    101 HE21 GLN A   7      26.194  12.939  22.101  0.00  0.00    +0.145 HD
ATOM    102 HE22 GLN A   7      24.883  13.405  20.957  0.00  0.00    +0.145 HD
ENDBRANCH  97  98
ENDBRANCH  96  97
ENDBRANCH  59  96
ENDBRANCH  57  59
ENDBRANCH  54  55
BRANCH  54 103
ATOM    103  CB  THR A   6      19.216  15.520  22.035  0.00  0.00    +0.137 C 
ATOM    104  CG2 THR A   6      19.180  15.308  23.543  0.00  0.00    +0.034 C 
BRANCH 103 105
ATOM    105  OG1 THR A   6      17.918  15.215  21.505  0.00  0.00    -0.382 OA
ATOM    106  HG1 THR A   6      17.925  15.345  20.524  0.00  0.00    +0.210 HD
ENDBRANCH 103 105
ENDBRANCH  54 103
ENDBRANCH   3  54
TORSDOF 39
REMARK  Name = ../refined-set-2016/4h3j/4h3j_pocket.pdb
REMARK  215 active torsions:
REMARK  status: ('A' for Active; 'I' for Inactive)
REMARK    1  A    between atoms: _1  and  _3
REMARK    2  A    between atoms: _3  and  _4
REMARK    3  A    between atoms: _3  and  _6
REMARK    4  A    between atoms: _6  and  _7
REMARK    5  A    between atoms: _7  and  _8
REMARK    6  A    between atoms: _8  and  _9
REMARK    7  A    between atoms: _9  and  _10
REMARK    8  A    between atoms: _14  and  _16
REMARK    9  A    between atoms: _16  and  _17
REMARK   10  A    between atoms: _16  and  _19
REMARK   11  A    between atoms: _19  and  _20
REMARK   12  A    between atoms: _22  and  _24
REMARK   13  A    between atoms: _24  and  _25
REMARK   14  A    between atoms: _27  and  _29
REMARK   15  A    between atoms: _29  and  _30
REMARK   16  A    between atoms: _29  and  _32
REMARK   17  A    between atoms: _32  and  _33
REMARK   18  A    between atoms: _33  and  _34
REMARK   19  A    between atoms: _39  and  _41
REMARK   20  A    between atoms: _41  and  _42
REMARK   21  A    between atoms: _44  and  _46
REMARK   22  A    between atoms: _46  and  _47
REMARK   23  A    between atoms: _46  and  _49
REMARK   24  A    between atoms: _49  and  _50
REMARK   25  A    between atoms: _55  and  _56
REMARK   26  A    between atoms: _58  and  _60
REMARK   27  A    between atoms: _60  and  _61
REMARK   28  A    between atoms: _60  and  _63
REMARK   29  A    between atoms: _63  and  _64
REMARK   30  A    between atoms: _67  and  _69
REMARK   31  A    between atoms: _69  and  _70
REMARK   32  A    between atoms: _69  and  _72
REMARK   33  A    between atoms: _75  and  _77
REMARK   34  A    between atoms: _77  and  _78
REMARK   35  A    between atoms: _77  and  _80
REMARK   36  A    between atoms: _80  and  _81
REMARK   37  A    between atoms: _84  and  _86
REMARK   38  A    between atoms: _86  and  _87
REMARK   39  A    between atoms: _86  and  _89
REMARK   40  A    between atoms: _89  and  _90
REMARK   41  A    between atoms: _93  and  _95
REMARK   42  A    between atoms: _95  and  _96
REMARK   43  A    between atoms: _98  and  _100
REMARK   44  A    between atoms: _100  and  _101
REMARK   45  A    between atoms: _100  and  _103
REMARK   46  A    between atoms: _103  and  _104
REMARK   47  A    between atoms: _106  and  _108
REMARK   48  A    between atoms: _108  and  _109
REMARK   49  A    between atoms: _108  and  _111
REMARK   50  A    between atoms: _111  and  _112
REMARK   51  A    between atoms: _114  and  _116
REMARK   52  A    between atoms: _116  and  _117
REMARK   53  A    between atoms: _116  and  _119
REMARK   54  A    between atoms: _119  and  _120
REMARK   55  A    between atoms: _125  and  _127
REMARK   56  A    between atoms: _127  and  _128
REMARK   57  A    between atoms: _127  and  _130
REMARK   58  A    between atoms: _130  and  _131
REMARK   59  A    between atoms: _137  and  _139
REMARK   60  A    between atoms: _139  and  _140
REMARK   61  A    between atoms: _143  and  _145
REMARK   62  A    between atoms: _145  and  _146
REMARK   63  A    between atoms: _145  and  _148
REMARK   64  A    between atoms: _151  and  _153
REMARK   65  A    between atoms: _153  and  _154
REMARK   66  A    between atoms: _153  and  _156
REMARK   67  A    between atoms: _156  and  _157
REMARK   68  A    between atoms: _162  and  _163
REMARK   69  A    between atoms: _165  and  _167
REMARK   70  A    between atoms: _167  and  _168
REMARK   71  A    between atoms: _167  and  _170
REMARK   72  A    between atoms: _174  and  _175
REMARK   73  A    between atoms: _180  and  _182
REMARK   74  A    between atoms: _182  and  _183
REMARK   75  A    between atoms: _182  and  _185
REMARK   76  A    between atoms: _185  and  _186
REMARK   77  A    between atoms: _191  and  _192
REMARK   78  A    between atoms: _194  and  _196
REMARK   79  A    between atoms: _196  and  _197
REMARK   80  A    between atoms: _196  and  _199
REMARK   81  A    between atoms: _199  and  _200
REMARK   82  A    between atoms: _203  and  _205
REMARK   83  A    between atoms: _205  and  _206
REMARK   84  A    between atoms: _205  and  _208
REMARK   85  A    between atoms: _208  and  _209
REMARK   86  A    between atoms: _209  and  _210
REMARK   87  A    between atoms: _215  and  _217
REMARK   88  A    between atoms: _217  and  _218
REMARK   89  A    between atoms: _220  and  _222
REMARK   90  A    between atoms: _222  and  _223
REMARK   91  A    between atoms: _222  and  _225
REMARK   92  A    between atoms: _225  and  _226
REMARK   93  A    between atoms: _226  and  _227
REMARK   94  A    between atoms: _227  and  _228
REMARK   95  A    between atoms: _228  and  _229
REMARK   96  A    between atoms: _233  and  _235
REMARK   97  A    between atoms: _235  and  _236
REMARK   98  A    between atoms: _235  and  _238
REMARK   99  A    between atoms: _238  and  _239
REMARK  100  A    between atoms: _249  and  _251
REMARK  101  A    between atoms: _251  and  _252
REMARK  102  A    between atoms: _255  and  _257
REMARK  103  A    between atoms: _257  and  _258
REMARK  104  A    between atoms: _257  and  _260
REMARK  105  A    between atoms: _260  and  _261
REMARK  106  A    between atoms: _261  and  _262
REMARK  107  A    between atoms: _262  and  _263
REMARK  108  A    between atoms: _263  and  _264
REMARK  109  A    between atoms: _268  and  _270
REMARK  110  A    between atoms: _270  and  _271
REMARK  111  A    between atoms: _270  and  _273
REMARK  112  A    between atoms: _273  and  _274
REMARK  113  A    between atoms: _280  and  _282
REMARK  114  A    between atoms: _282  and  _283
REMARK  115  A    between atoms: _282  and  _285
REMARK  116  A    between atoms: _285  and  _286
REMARK  117  A    between atoms: _292  and  _294
REMARK  118  A    between atoms: _294  and  _295
REMARK  119  A    between atoms: _294  and  _297
REMARK  120  A    between atoms: _297  and  _298
REMARK  121  A    between atoms: _301  and  _303
REMARK  122  A    between atoms: _303  and  _304
REMARK  123  A    between atoms: _303  and  _306
REMARK  124  A    between atoms: _306  and  _307
REMARK  125  A    between atoms: _309  and  _311
REMARK  126  A    between atoms: _311  and  _312
REMARK  127  A    between atoms: _311  and  _314
REMARK  128  A    between atoms: _314  and  _315
REMARK  129  A    between atoms: _325  and  _327
REMARK  130  A    between atoms: _327  and  _328
REMARK  131  A    between atoms: _330  and  _332
REMARK  132  A    between atoms: _332  and  _333
REMARK  133  A    between atoms: _332  and  _335
REMARK  134  A    between atoms: _335  and  _336
REMARK  135  A    between atoms: _339  and  _341
REMARK  136  A    between atoms: _341  and  _342
REMARK  137  A    between atoms: _341  and  _344
REMARK  138  A    between atoms: _344  and  _345
REMARK  139  A    between atoms: _348  and  _350
REMARK  140  A    between atoms: _350  and  _351
REMARK  141  A    between atoms: _353  and  _355
REMARK  142  A    between atoms: _355  and  _356
REMARK  143  A    between atoms: _355  and  _358
REMARK  144  A    between atoms: _358  and  _359
REMARK  145  A    between atoms: _362  and  _364
REMARK  146  A    between atoms: _364  and  _365
REMARK  147  A    between atoms: _364  and  _367
REMARK  148  A    between atoms: _367  and  _368
REMARK  149  A    between atoms: _371  and  _373
REMARK  150  A    between atoms: _373  and  _374
REMARK  151  A    between atoms: _377  and  _379
REMARK  152  A    between atoms: _379  and  _380
REMARK  153  A    between atoms: _379  and  _382
REMARK  154  A    between atoms: _382  and  _383
REMARK  155  A    between atoms: _383  and  _384
REMARK  156  A    between atoms: _384  and  _385
REMARK  157  A    between atoms: _395  and  _396
REMARK  158  A    between atoms: _401  and  _403
REMARK  159  A    between atoms: _403  and  _404
REMARK  160  A    between atoms: _403  and  _406
REMARK  161  A    between atoms: _406  and  _407
REMARK  162  A    between atoms: _410  and  _412
REMARK  163  A    between atoms: _412  and  _413
REMARK  164  A    between atoms: _412  and  _415
REMARK  165  A    between atoms: _415  and  _416
REMARK  166  A    between atoms: _421  and  _422
REMARK  167  A    between atoms: _424  and  _426
REMARK  168  A    between atoms: _426  and  _427
REMARK  169  A    between atoms: _426  and  _429
REMARK  170  A    between atoms: _429  and  _430
REMARK  171  A    between atoms: _433  and  _435
REMARK  172  A    between atoms: _435  and  _436
REMARK  173  A    between atoms: _435  and  _438
REMARK  174  A    between atoms: _441  and  _443
REMARK  175  A    between atoms: _443  and  _444
REMARK  176  A    between atoms: _443  and  _446
REMARK  177  A    between atoms: _446  and  _447
REMARK  178  A    between atoms: _450  and  _452
REMARK  179  A    between atoms: _452  and  _453
REMARK  180  A    between atoms: _452  and  _455
REMARK  181  A    between atoms: _455  and  _456
REMARK  182  A    between atoms: _458  and  _460
REMARK  183  A    between atoms: _460  and  _461
REMARK  184  A    between atoms: _463  and  _465
REMARK  185  A    between atoms: _465  and  _466
REMARK  186  A    between atoms: _465  and  _468
REMARK  187  A    between atoms: _468  and  _469
REMARK  188  A    between atoms: _472  and  _474
REMARK  189  A    between atoms: _474  and  _475
REMARK  190  A    between atoms: _474  and  _477
REMARK  191  A    between atoms: _477  and  _478
REMARK  192  A    between atoms: _481  and  _483
REMARK  193  A    between atoms: _483  and  _484
REMARK  194  A    between atoms: _483  and  _486
REMARK  195  A    between atoms: _486  and  _487
REMARK  196  A    between atoms: _492  and  _494
REMARK  197  A    between atoms: _494  and  _495
REMARK  198  A    between atoms: _494  and  _497
REMARK  199  A    between atoms: _497  and  _498
REMARK  200  A    between atoms: _498  and  _499
REMARK  201  A    between atoms: _499  and  _500
REMARK  202  A    between atoms: _509  and  _511
REMARK  203  A    between atoms: _511  and  _512
REMARK  204  A    between atoms: _511  and  _514
REMARK  205  A    between atoms: _514  and  _515
REMARK  206  A    between atoms: _518  and  _520
REMARK  207  A    between atoms: _520  and  _521
REMARK  208  A    between atoms: _520  and  _523
REMARK  209  A    between atoms: _526  and  _528
REMARK  210  A    between atoms: _528  and  _529
REMARK  211  A    between atoms: _531  and  _533
REMARK  212  A    between atoms: _533  and  _534
REMARK  213  A    between atoms: _537  and  _539
REMARK  214  A    between atoms: _539  and  _540
REMARK  215  A    between atoms: _539  and  _542
REMARK                            x       y       z     vdW  Elec       q    Type
REMARK                         _______ _______ _______ _____ _____    ______ ____
ROOT
ATOM      1  CA  ALA A   1      14.225   3.893  12.045  0.00  0.00    +0.133 C 
ATOM      2  CB  ALA A   1      14.319   4.862  13.236  0.00  0.00    +0.027 C 
ENDROOT
BRANCH   1   3
ATOM      3  N   ALA A   1      14.636   2.565  12.449  0.00  0.00    -0.239 NA
ATOM      4  H   ALA A   1      15.384   2.455  13.163  0.00  0.00    +0.142 HD
ENDBRANCH   1   3
BRANCH   1   5
ATOM      5  C   ALA A   1      15.209   4.281  10.947  0.00  0.00    +0.224 C 
ATOM      6  O   ALA A   1      16.410   4.459  11.204  0.00  0.00    -0.287 OA
ENDBRANCH   1   5
TORSDOF 2
REMARK  Name = ../refined-set-2016/4h3j/4h3j_pocket.pdb
REMARK  215 active torsions:
REMARK  status: ('A' for Active; 'I' for Inactive)
REMARK    1  A    between atoms: _1  and  _3
REMARK    2  A    between atoms: _3  and  _4
REMARK    3  A    between atoms: _3  and  _6
REMARK    4  A    between atoms: _6  and  _7
REMARK    5  A    between atoms: _7  and  _8
REMARK    6  A    between atoms: _8  and  _9
REMARK    7  A    between atoms: _9  and  _10
REMARK    8  A    between atoms: _14  and  _16
REMARK    9  A    between atoms: _16  and  _17
REMARK   10  A    between atoms: _16  and  _19
REMARK   11  A    between atoms: _19  and  _20
REMARK   12  A    between atoms: _22  and  _24
REMARK   13  A    between atoms: _24  and  _25
REMARK   14  A    between atoms: _27  and  _29
REMARK   15  A    between atoms: _29  and  _30
REMARK   16  A    between atoms: _29  and  _32
REMARK   17  A    between atoms: _32  and  _33
REMARK   18  A    between atoms: _33  and  _34
REMARK   19  A    between atoms: _39  and  _41
REMARK   20  A    between atoms: _41  and  _42
REMARK   21  A    between atoms: _44  and  _46
REMARK   22  A    between atoms: _46  and  _47
REMARK   23  A    between atoms: _46  and  _49
REMARK   24  A    between atoms: _49  and  _50
REMARK   25  A    between atoms: _55  and  _56
REMARK   26  A    between atoms: _58  and  _60
REMARK   27  A    between atoms: _60  and  _61
REMARK   28  A    between atoms: _60  and  _63
REMARK   29  A    between atoms: _63  and  _64
REMARK   30  A    between atoms: _67  and  _69
REMARK   31  A    between atoms: _69  and  _70
REMARK   32  A    between atoms: _69  and  _72
REMARK   33  A    between atoms: _75  and  _77
REMARK   34  A    between atoms: _77  and  _78
REMARK   35  A    between atoms: _77  and  _80
REMARK   36  A    between atoms: _80  and  _81
REMARK   37  A    between atoms: _84  and  _86
REMARK   38  A    between atoms: _86  and  _87
REMARK   39  A    between atoms: _86  and  _89
REMARK   40  A    between atoms: _89  and  _90
REMARK   41  A    between atoms: _93  and  _95
REMARK   42  A    between atoms: _95  and  _96
REMARK   43  A    between atoms: _98  and  _100
REMARK   44  A    between atoms: _100  and  _101
REMARK   45  A    between atoms: _100  and  _103
REMARK   46  A    between atoms: _103  and  _104
REMARK   47  A    between atoms: _106  and  _108
REMARK   48  A    between atoms: _108  and  _109
REMARK   49  A    between atoms: _108  and  _111
REMARK   50  A    between atoms: _111  and  _112
REMARK   51  A    between atoms: _114  and  _116
REMARK   52  A    between atoms: _116  and  _117
REMARK   53  A    between atoms: _116  and  _119
REMARK   54  A    between atoms: _119  and  _120
REMARK   55  A    between atoms: _125  and  _127
REMARK   56  A    between atoms: _127  and  _128
REMARK   57  A    between atoms: _127  and  _130
REMARK   58  A    between atoms: _130  and  _131
REMARK   59  A    between atoms: _137  and  _139
REMARK   60  A    between atoms: _139  and  _140
REMARK   61  A    between atoms: _143  and  _145
REMARK   62  A    between atoms: _145  and  _146
REMARK   63  A    between atoms: _145  and  _148
REMARK   64  A    between atoms: _151  and  _153
REMARK   65  A    between atoms: _153  and  _154
REMARK   66  A    between atoms: _153  and  _156
REMARK   67  A    between atoms: _156  and  _157
REMARK   68  A    between atoms: _162  and  _163
REMARK   69  A    between atoms: _165  and  _167
REMARK   70  A    between atoms: _167  and  _168
REMARK   71  A    between atoms: _167  and  _170
REMARK   72  A    between atoms: _174  and  _175
REMARK   73  A    between atoms: _180  and  _182
REMARK   74  A    between atoms: _182  and  _183
REMARK   75  A    between atoms: _182  and  _185
REMARK   76  A    between atoms: _185  and  _186
REMARK   77  A    between atoms: _191  and  _192
REMARK   78  A    between atoms: _194  and  _196
REMARK   79  A    between atoms: _196  and  _197
REMARK   80  A    between atoms: _196  and  _199
REMARK   81  A    between atoms: _199  and  _200
REMARK   82  A    between atoms: _203  and  _205
REMARK   83  A    between atoms: _205  and  _206
REMARK   84  A    between atoms: _205  and  _208
REMARK   85  A    between atoms: _208  and  _209
REMARK   86  A    between atoms: _209  and  _210
REMARK   87  A    between atoms: _215  and  _217
REMARK   88  A    between atoms: _217  and  _218
REMARK   89  A    between atoms: _220  and  _222
REMARK   90  A    between atoms: _222  and  _223
REMARK   91  A    between atoms: _222  and  _225
REMARK   92  A    between atoms: _225  and  _226
REMARK   93  A    between atoms: _226  and  _227
REMARK   94  A    between atoms: _227  and  _228
REMARK   95  A    between atoms: _228  and  _229
REMARK   96  A    between atoms: _233  and  _235
REMARK   97  A    between atoms: _235  and  _236
REMARK   98  A    between atoms: _235  and  _238
REMARK   99  A    between atoms: _238  and  _239
REMARK  100  A    between atoms: _249  and  _251
REMARK  101  A    between atoms: _251  and  _252
REMARK  102  A    between atoms: _255  and  _257
REMARK  103  A    between atoms: _257  and  _258
REMARK  104  A    between atoms: _257  and  _260
REMARK  105  A    between atoms: _260  and  _261
REMARK  106  A    between atoms: _261  and  _262
REMARK  107  A    between atoms: _262  and  _263
REMARK  108  A    between atoms: _263  and  _264
REMARK  109  A    between atoms: _268  and  _270
REMARK  110  A    between atoms: _270  and  _271
REMARK  111  A    between atoms: _270  and  _273
REMARK  112  A    between atoms: _273  and  _274
REMARK  113  A    between atoms: _280  and  _282
REMARK  114  A    between atoms: _282  and  _283
REMARK  115  A    between atoms: _282  and  _285
REMARK  116  A    between atoms: _285  and  _286
REMARK  117  A    between atoms: _292  and  _294
REMARK  118  A    between atoms: _294  and  _295
REMARK  119  A    between atoms: _294  and  _297
REMARK  120  A    between atoms: _297  and  _298
REMARK  121  A    between atoms: _301  and  _303
REMARK  122  A    between atoms: _303  and  _304
REMARK  123  A    between atoms: _303  and  _306
REMARK  124  A    between atoms: _306  and  _307
REMARK  125  A    between atoms: _309  and  _311
REMARK  126  A    between atoms: _311  and  _312
REMARK  127  A    between atoms: _311  and  _314
REMARK  128  A    between atoms: _314  and  _315
REMARK  129  A    between atoms: _325  and  _327
REMARK  130  A    between atoms: _327  and  _328
REMARK  131  A    between atoms: _330  and  _332
REMARK  132  A    between atoms: _332  and  _333
REMARK  133  A    between atoms: _332  and  _335
REMARK  134  A    between atoms: _335  and  _336
REMARK  135  A    between atoms: _339  and  _341
REMARK  136  A    between atoms: _341  and  _342
REMARK  137  A    between atoms: _341  and  _344
REMARK  138  A    between atoms: _344  and  _345
REMARK  139  A    between atoms: _348  and  _350
REMARK  140  A    between atoms: _350  and  _351
REMARK  141  A    between atoms: _353  and  _355
REMARK  142  A    between atoms: _355  and  _356
REMARK  143  A    between atoms: _355  and  _358
REMARK  144  A    between atoms: _358  and  _359
REMARK  145  A    between atoms: _362  and  _364
REMARK  146  A    between atoms: _364  and  _365
REMARK  147  A    between atoms: _364  and  _367
REMARK  148  A    between atoms: _367  and  _368
REMARK  149  A    between atoms: _371  and  _373
REMARK  150  A    between atoms: _373  and  _374
REMARK  151  A    between atoms: _377  and  _379
REMARK  152  A    between atoms: _379  and  _380
REMARK  153  A    between atoms: _379  and  _382
REMARK  154  A    between atoms: _382  and  _383
REMARK  155  A    between atoms: _383  and  _384
REMARK  156  A    between atoms: _384  and  _385
REMARK  157  A    between atoms: _395  and  _396
REMARK  158  A    between atoms: _401  and  _403
REMARK  159  A    between atoms: _403  and  _404
REMARK  160  A    between atoms: _403  and  _406
REMARK  161  A    between atoms: _406  and  _407
REMARK  162  A    between atoms: _410  and  _412
REMARK  163  A    between atoms: _412  and  _413
REMARK  164  A    between atoms: _412  and  _415
REMARK  165  A    between atoms: _415  and  _416
REMARK  166  A    between atoms: _421  and  _422
REMARK  167  A    between atoms: _424  and  _426
REMARK  168  A    between atoms: _426  and  _427
REMARK  169  A    between atoms: _426  and  _429
REMARK  170  A    between atoms: _429  and  _430
REMARK  171  A    between atoms: _433  and  _435
REMARK  172  A    between atoms: _435  and  _436
REMARK  173  A    between atoms: _435  and  _438
REMARK  174  A    between atoms: _441  and  _443
REMARK  175  A    between atoms: _443  and  _444
REMARK  176  A    between atoms: _443  and  _446
REMARK  177  A    between atoms: _446  and  _447
REMARK  178  A    between atoms: _450  and  _452
REMARK  179  A    between atoms: _452  and  _453
REMARK  180  A    between atoms: _452  and  _455
REMARK  181  A    between atoms: _455  and  _456
REMARK  182  A    between atoms: _458  and  _460
REMARK  183  A    between atoms: _460  and  _461
REMARK  184  A    between atoms: _463  and  _465
REMARK  185  A    between atoms: _465  and  _466
REMARK  186  A    between atoms: _465  and  _468
REMARK  187  A    between atoms: _468  and  _469
REMARK  188  A    between atoms: _472  and  _474
REMARK  189  A    between atoms: _474  and  _475
REMARK  190  A    between atoms: _474  and  _477
REMARK  191  A    between atoms: _477  and  _478
REMARK  192  A    between atoms: _481  and  _483
REMARK  193  A    between atoms: _483  and  _484
REMARK  194  A    between atoms: _483  and  _486
REMARK  195  A    between atoms: _486  and  _487
REMARK  196  A    between atoms: _492  and  _494
REMARK  197  A    between atoms: _494  and  _495
REMARK  198  A    between atoms: _494  and  _497
REMARK  199  A    between atoms: _497  and  _498
REMARK  200  A    between atoms: _498  and  _499
REMARK  201  A    between atoms: _499  and  _500
REMARK  202  A    between atoms: _509  and  _511
REMARK  203  A    between atoms: _511  and  _512
REMARK  204  A    between atoms: _511  and  _514
REMARK  205  A    between atoms: _514  and  _515
REMARK  206  A    between atoms: _518  and  _520
REMARK  207  A    between atoms: _520  and  _521
REMARK  208  A    between atoms: _520  and  _523
REMARK  209  A    between atoms: _526  and  _528
REMARK  210  A    between atoms: _528  and  _529
REMARK  211  A    between atoms: _531  and  _533
REMARK  212  A    between atoms: _533  and  _534
REMARK  213  A    between atoms: _537  and  _539
REMARK  214  A    between atoms: _539  and  _540
REMARK  215  A    between atoms: _539  and  _542
REMARK                            x       y       z     vdW  Elec       q    Type
REMARK                         _______ _______ _______ _____ _____    ______ ____
ROOT
ATOM      1  CA  PHE A   2      23.576  14.253  14.009  0.00  0.00    +0.153 C 
ENDROOT
BRANCH   1   4
ATOM      2  C   LYS A   1      24.036  16.639  14.135  0.00  0.00    +0.238 C 
ATOM      3  O   LYS A   1      24.357  16.555  15.319  0.00  0.00    -0.274 OA
ATOM      4  N   PHE A   2      23.638  15.590  13.421  0.00  0.00    -0.297 N 
ATOM      5  H   PHE A   2      23.366  15.723  12.426  0.00  0.00    +0.150 HD
BRANCH   2   6
ATOM      6  CA  LYS A   1      24.070  17.987  13.429  0.00  0.00    +0.145 C 
BRANCH   6   7
ATOM      7  N   LYS A   1      23.085  18.087  12.359  0.00  0.00    -0.238 NA
ATOM      8  H   LYS A   1      23.407  18.298  11.393  0.00  0.00    +0.142 HD
ENDBRANCH   6   7
BRANCH   6   9
ATOM      9  CB  LYS A   1      23.839  19.078  14.476  0.00  0.00    +0.026 C 
BRANCH   9  10
ATOM     10  CG  LYS A   1      24.018  20.506  13.999  0.00  0.00    -0.000 C 
BRANCH  10  11
ATOM     11  CD  LYS A   1      23.765  21.454  15.168  0.00  0.00    -0.024 C 
BRANCH  11  12
ATOM     12  CE  LYS A   1      23.934  22.911  14.782  0.00  0.00    -0.086 C 
BRANCH  12  13
ATOM     13  NZ  LYS A   1      23.710  23.804  15.961  0.00  0.00    +0.380 N 
ATOM     14  HZ1 LYS A   1      24.398  23.572  16.705  0.00  0.00    -0.089 HD
ATOM     15  HZ2 LYS A   1      22.745  23.663  16.323  0.00  0.00    -0.089 HD
ATOM     16  HZ3 LYS A   1      23.831  24.795  15.671  0.00  0.00    -0.089 HD
ENDBRANCH  12  13
ENDBRANCH  11  12
ENDBRANCH  10  11
ENDBRANCH   9  10
ENDBRANCH   6   9
ENDBRANCH   2   6
ENDBRANCH   1   4
BRANCH   1  17
ATOM     17  C   PHE A   2      24.830  13.471  13.591  0.00  0.00    +0.241 C 
ATOM     18  O   PHE A   2      25.640  13.095  14.439  0.00  0.00    -0.273 OA
ATOM     19  N   PHE A   3      25.000  13.231  12.293  0.00  0.00    -0.297 N 
ATOM     20  H   PHE A   3      24.283  13.546  11.609  0.00  0.00    +0.150 HD
BRANCH  19  21
ATOM     21  CA  PHE A   3      26.191  12.526  11.827  0.00  0.00    +0.153 C 
BRANCH  21  22
ATOM     22  C   PHE A   3      27.368  13.489  11.951  0.00  0.00    +0.241 C 
ATOM     23  N   ILE A   4      28.500  12.981  12.427  0.00  0.00    -0.298 N 
ATOM     24  H   ILE A   4      28.548  11.966  12.647  0.00  0.00    +0.150 HD
ATOM     25  O   PHE A   3      27.245  14.673  11.639  0.00  0.00    -0.273 OA
BRANCH  23  26
ATOM     26  CA  ILE A   4      29.679  13.816  12.648  0.00  0.00    +0.137 C 
BRANCH  26  27
ATOM     27  C   ILE A   4      30.775  13.664  11.598  0.00  0.00    +0.227 C 
ATOM     28  O   ILE A   4      31.191  12.549  11.268  0.00  0.00    -0.286 OA
ENDBRANCH  26  27
BRANCH  26  29
ATOM     29  CB  ILE A   4      30.287  13.520  14.038  0.00  0.00    +0.026 C 
ATOM     30  CG2 ILE A   4      31.461  14.457  14.309  0.00  0.00    +0.002 C 
BRANCH  29  31
ATOM     31  CG1 ILE A   4      29.213  13.679  15.122  0.00  0.00    +0.002 C 
ATOM     32  CD1 ILE A   4      28.639  15.089  15.241  0.00  0.00    +0.000 C 
ENDBRANCH  29  31
ENDBRANCH  26  29
ENDBRANCH  23  26
ENDBRANCH  21  22
BRANCH  21  33
ATOM     33  CB  PHE A   3      26.000  12.044  10.382  0.00  0.00    +0.055 C 
BRANCH  33  34
ATOM     34  CG  PHE A   3      24.893  11.034  10.239  0.00  0.00    -0.020 A 
ATOM     35  CD2 PHE A   3      24.953   9.824  10.924  0.00  0.00    -0.004 A 
ATOM     36  CE2 PHE A   3      23.893   8.919  10.865  0.00  0.00    -0.000 A 
ATOM     37  CZ  PHE A   3      22.768   9.222  10.121  0.00  0.00    -0.000 A 
ATOM     38  CE1 PHE A   3      22.699  10.418   9.431  0.00  0.00    -0.000 A 
ATOM     39  CD1 PHE A   3      23.762  11.321   9.490  0.00  0.00    -0.004 A 
ENDBRANCH  33  34
ENDBRANCH  21  33
ENDBRANCH  19  21
ENDBRANCH   1  17
BRANCH   1  40
ATOM     40  CB  PHE A   2      22.297  13.537  13.547  0.00  0.00    +0.055 C 
BRANCH  40  41
ATOM     41  CG  PHE A   2      22.118  12.163  14.127  0.00  0.00    -0.020 A 
ATOM     42  CD2 PHE A   2      21.879  11.981  15.479  0.00  0.00    -0.004 A 
ATOM     43  CE2 PHE A   2      21.706  10.705  16.001  0.00  0.00    -0.000 A 
ATOM     44  CZ  PHE A   2      21.774   9.594  15.164  0.00  0.00    -0.000 A 
ATOM     45  CE1 PHE A   2      22.011   9.770  13.820  0.00  0.00    -0.000 A 
ATOM     46  CD1 PHE A   2      22.181  11.043  13.307  0.00  0.00    -0.004 A 
ENDBRANCH  40  41
ENDBRANCH   1  40
TORSDOF 19
REMARK  Name = ../refined-set-2016/4h3j/4h3j_pocket.pdb
REMARK  215 active torsions:
REMARK  status: ('A' for Active; 'I' for Inactive)
REMARK    1  A    between atoms: _1  and  _3
REMARK    2  A    between atoms: _3  and  _4
REMARK    3  A    between atoms: _3  and  _6
REMARK    4  A    between atoms: _6  and  _7
REMARK    5  A    between atoms: _7  and  _8
REMARK    6  A    between atoms: _8  and  _9
REMARK    7  A    between atoms: _9  and  _10
REMARK    8  A    between atoms: _14  and  _16
REMARK    9  A    between atoms: _16  and  _17
REMARK   10  A    between atoms: _16  and  _19
REMARK   11  A    between atoms: _19  and  _20
REMARK   12  A    between atoms: _22  and  _24
REMARK   13  A    between atoms: _24  and  _25
REMARK   14  A    between atoms: _27  and  _29
REMARK   15  A    between atoms: _29  and  _30
REMARK   16  A    between atoms: _29  and  _32
REMARK   17  A    between atoms: _32  and  _33
REMARK   18  A    between atoms: _33  and  _34
REMARK   19  A    between atoms: _39  and  _41
REMARK   20  A    between atoms: _41  and  _42
REMARK   21  A    between atoms: _44  and  _46
REMARK   22  A    between atoms: _46  and  _47
REMARK   23  A    between atoms: _46  and  _49
REMARK   24  A    between atoms: _49  and  _50
REMARK   25  A    between atoms: _55  and  _56
REMARK   26  A    between atoms: _58  and  _60
REMARK   27  A    between atoms: _60  and  _61
REMARK   28  A    between atoms: _60  and  _63
REMARK   29  A    between atoms: _63  and  _64
REMARK   30  A    between atoms: _67  and  _69
REMARK   31  A    between atoms: _69  and  _70
REMARK   32  A    between atoms: _69  and  _72
REMARK   33  A    between atoms: _75  and  _77
REMARK   34  A    between atoms: _77  and  _78
REMARK   35  A    between atoms: _77  and  _80
REMARK   36  A    between atoms: _80  and  _81
REMARK   37  A    between atoms: _84  and  _86
REMARK   38  A    between atoms: _86  and  _87
REMARK   39  A    between atoms: _86  and  _89
REMARK   40  A    between atoms: _89  and  _90
REMARK   41  A    between atoms: _93  and  _95
REMARK   42  A    between atoms: _95  and  _96
REMARK   43  A    between atoms: _98  and  _100
REMARK   44  A    between atoms: _100  and  _101
REMARK   45  A    between atoms: _100  and  _103
REMARK   46  A    between atoms: _103  and  _104
REMARK   47  A    between atoms: _106  and  _108
REMARK   48  A    between atoms: _108  and  _109
REMARK   49  A    between atoms: _108  and  _111
REMARK   50  A    between atoms: _111  and  _112
REMARK   51  A    between atoms: _114  and  _116
REMARK   52  A    between atoms: _116  and  _117
REMARK   53  A    between atoms: _116  and  _119
REMARK   54  A    between atoms: _119  and  _120
REMARK   55  A    between atoms: _125  and  _127
REMARK   56  A    between atoms: _127  and  _128
REMARK   57  A    between atoms: _127  and  _130
REMARK   58  A    between atoms: _130  and  _131
REMARK   59  A    between atoms: _137  and  _139
REMARK   60  A    between atoms: _139  and  _140
REMARK   61  A    between atoms: _143  and  _145
REMARK   62  A    between atoms: _145  and  _146
REMARK   63  A    between atoms: _145  and  _148
REMARK   64  A    between atoms: _151  and  _153
REMARK   65  A    between atoms: _153  and  _154
REMARK   66  A    between atoms: _153  and  _156
REMARK   67  A    between atoms: _156  and  _157
REMARK   68  A    between atoms: _162  and  _163
REMARK   69  A    between atoms: _165  and  _167
REMARK   70  A    between atoms: _167  and  _168
REMARK   71  A    between atoms: _167  and  _170
REMARK   72  A    between atoms: _174  and  _175
REMARK   73  A    between atoms: _180  and  _182
REMARK   74  A    between atoms: _182  and  _183
REMARK   75  A    between atoms: _182  and  _185
REMARK   76  A    between atoms: _185  and  _186
REMARK   77  A    between atoms: _191  and  _192
REMARK   78  A    between atoms: _194  and  _196
REMARK   79  A    between atoms: _196  and  _197
REMARK   80  A    between atoms: _196  and  _199
REMARK   81  A    between atoms: _199  and  _200
REMARK   82  A    between atoms: _203  and  _205
REMARK   83  A    between atoms: _205  and  _206
REMARK   84  A    between atoms: _205  and  _208
REMARK   85  A    between atoms: _208  and  _209
REMARK   86  A    between atoms: _209  and  _210
REMARK   87  A    between atoms: _215  and  _217
REMARK   88  A    between atoms: _217  and  _218
REMARK   89  A    between atoms: _220  and  _222
REMARK   90  A    between atoms: _222  and  _223
REMARK   91  A    between atoms: _222  and  _225
REMARK   92  A    between atoms: _225  and  _226
REMARK   93  A    between atoms: _226  and  _227
REMARK   94  A    between atoms: _227  and  _228
REMARK   95  A    between atoms: _228  and  _229
REMARK   96  A    between atoms: _233  and  _235
REMARK   97  A    between atoms: _235  and  _236
REMARK   98  A    between atoms: _235  and  _238
REMARK   99  A    between atoms: _238  and  _239
REMARK  100  A    between atoms: _249  and  _251
REMARK  101  A    between atoms: _251  and  _252
REMARK  102  A    between atoms: _255  and  _257
REMARK  103  A    between atoms: _257  and  _258
REMARK  104  A    between atoms: _257  and  _260
REMARK  105  A    between atoms: _260  and  _261
REMARK  106  A    between atoms: _261  and  _262
REMARK  107  A    between atoms: _262  and  _263
REMARK  108  A    between atoms: _263  and  _264
REMARK  109  A    between atoms: _268  and  _270
REMARK  110  A    between atoms: _270  and  _271
REMARK  111  A    between atoms: _270  and  _273
REMARK  112  A    between atoms: _273  and  _274
REMARK  113  A    between atoms: _280  and  _282
REMARK  114  A    between atoms: _282  and  _283
REMARK  115  A    between atoms: _282  and  _285
REMARK  116  A    between atoms: _285  and  _286
REMARK  117  A    between atoms: _292  and  _294
REMARK  118  A    between atoms: _294  and  _295
REMARK  119  A    between atoms: _294  and  _297
REMARK  120  A    between atoms: _297  and  _298
REMARK  121  A    between atoms: _301  and  _303
REMARK  122  A    between atoms: _303  and  _304
REMARK  123  A    between atoms: _303  and  _306
REMARK  124  A    between atoms: _306  and  _307
REMARK  125  A    between atoms: _309  and  _311
REMARK  126  A    between atoms: _311  and  _312
REMARK  127  A    between atoms: _311  and  _314
REMARK  128  A    between atoms: _314  and  _315
REMARK  129  A    between atoms: _325  and  _327
REMARK  130  A    between atoms: _327  and  _328
REMARK  131  A    between atoms: _330  and  _332
REMARK  132  A    between atoms: _332  and  _333
REMARK  133  A    between atoms: _332  and  _335
REMARK  134  A    between atoms: _335  and  _336
REMARK  135  A    between atoms: _339  and  _341
REMARK  136  A    between atoms: _341  and  _342
REMARK  137  A    between atoms: _341  and  _344
REMARK  138  A    between atoms: _344  and  _345
REMARK  139  A    between atoms: _348  and  _350
REMARK  140  A    between atoms: _350  and  _351
REMARK  141  A    between atoms: _353  and  _355
REMARK  142  A    between atoms: _355  and  _356
REMARK  143  A    between atoms: _355  and  _358
REMARK  144  A    between atoms: _358  and  _359
REMARK  145  A    between atoms: _362  and  _364
REMARK  146  A    between atoms: _364  and  _365
REMARK  147  A    between atoms: _364  and  _367
REMARK  148  A    between atoms: _367  and  _368
REMARK  149  A    between atoms: _371  and  _373
REMARK  150  A    between atoms: _373  and  _374
REMARK  151  A    between atoms: _377  and  _379
REMARK  152  A    between atoms: _379  and  _380
REMARK  153  A    between atoms: _379  and  _382
REMARK  154  A    between atoms: _382  and  _383
REMARK  155  A    between atoms: _383  and  _384
REMARK  156  A    between atoms: _384  and  _385
REMARK  157  A    between atoms: _395  and  _396
REMARK  158  A    between atoms: _401  and  _403
REMARK  159  A    between atoms: _403  and  _404
REMARK  160  A    between atoms: _403  and  _406
REMARK  161  A    between atoms: _406  and  _407
REMARK  162  A    between atoms: _410  and  _412
REMARK  163  A    between atoms: _412  and  _413
REMARK  164  A    between atoms: _412  and  _415
REMARK  165  A    between atoms: _415  and  _416
REMARK  166  A    between atoms: _421  and  _422
REMARK  167  A    between atoms: _424  and  _426
REMARK  168  A    between atoms: _426  and  _427
REMARK  169  A    between atoms: _426  and  _429
REMARK  170  A    between atoms: _429  and  _430
REMARK  171  A    between atoms: _433  and  _435
REMARK  172  A    between atoms: _435  and  _436
REMARK  173  A    between atoms: _435  and  _438
REMARK  174  A    between atoms: _441  and  _443
REMARK  175  A    between atoms: _443  and  _444
REMARK  176  A    between atoms: _443  and  _446
REMARK  177  A    between atoms: _446  and  _447
REMARK  178  A    between atoms: _450  and  _452
REMARK  179  A    between atoms: _452  and  _453
REMARK  180  A    between atoms: _452  and  _455
REMARK  181  A    between atoms: _455  and  _456
REMARK  182  A    between atoms: _458  and  _460
REMARK  183  A    between atoms: _460  and  _461
REMARK  184  A    between atoms: _463  and  _465
REMARK  185  A    between atoms: _465  and  _466
REMARK  186  A    between atoms: _465  and  _468
REMARK  187  A    between atoms: _468  and  _469
REMARK  188  A    between atoms: _472  and  _474
REMARK  189  A    between atoms: _474  and  _475
REMARK  190  A    between atoms: _474  and  _477
REMARK  191  A    between atoms: _477  and  _478
REMARK  192  A    between atoms: _481  and  _483
REMARK  193  A    between atoms: _483  and  _484
REMARK  194  A    between atoms: _483  and  _486
REMARK  195  A    between atoms: _486  and  _487
REMARK  196  A    between atoms: _492  and  _494
REMARK  197  A    between atoms: _494  and  _495
REMARK  198  A    between atoms: _494  and  _497
REMARK  199  A    between atoms: _497  and  _498
REMARK  200  A    between atoms: _498  and  _499
REMARK  201  A    between atoms: _499  and  _500
REMARK  202  A    between atoms: _509  and  _511
REMARK  203  A    between atoms: _511  and  _512
REMARK  204  A    between atoms: _511  and  _514
REMARK  205  A    between atoms: _514  and  _515
REMARK  206  A    between atoms: _518  and  _520
REMARK  207  A    between atoms: _520  and  _521
REMARK  208  A    between atoms: _520  and  _523
REMARK  209  A    between atoms: _526  and  _528
REMARK  210  A    between atoms: _528  and  _529
REMARK  211  A    between atoms: _531  and  _533
REMARK  212  A    between atoms: _533  and  _534
REMARK  213  A    between atoms: _537  and  _539
REMARK  214  A    between atoms: _539  and  _540
REMARK  215  A    between atoms: _539  and  _542
REMARK                            x       y       z     vdW  Elec       q    Type
REMARK                         _______ _______ _______ _____ _____    ______ ____
ROOT
ATOM      1  CA  SER A   1      33.414   9.809  12.569  0.00  0.00    +0.163 C 
ENDROOT
BRANCH   1   2
ATOM      2  N   SER A   1      33.737  10.993  11.781  0.00  0.00    -0.237 NA
ATOM      3  H   SER A   1      33.002  11.704  11.590  0.00  0.00    +0.142 HD
ENDBRANCH   1   2
BRANCH   1   4
ATOM      4  C   SER A   1      33.173   8.609  11.657  0.00  0.00    +0.227 C 
ATOM      5  O   SER A   1      33.077   8.765  10.439  0.00  0.00    -0.287 OA
ENDBRANCH   1   4
BRANCH   1   6
ATOM      6  CB  SER A   1      32.205  10.084  13.468  0.00  0.00    +0.162 C 
BRANCH   6   7
ATOM      7  OG  SER A   1      32.562  11.011  14.486  0.00  0.00    -0.380 OA
ATOM      8  H   SER A   1      31.777  11.184  15.063  0.00  0.00    +0.211 HD
ENDBRANCH   6   7
ENDBRANCH   1   6
TORSDOF 4
REMARK  Name = ../refined-set-2016/4h3j/4h3j_pocket.pdb
REMARK  215 active torsions:
REMARK  status: ('A' for Active; 'I' for Inactive)
REMARK    1  A    between atoms: _1  and  _3
REMARK    2  A    between atoms: _3  and  _4
REMARK    3  A    between atoms: _3  and  _6
REMARK    4  A    between atoms: _6  and  _7
REMARK    5  A    between atoms: _7  and  _8
REMARK    6  A    between atoms: _8  and  _9
REMARK    7  A    between atoms: _9  and  _10
REMARK    8  A    between atoms: _14  and  _16
REMARK    9  A    between atoms: _16  and  _17
REMARK   10  A    between atoms: _16  and  _19
REMARK   11  A    between atoms: _19  and  _20
REMARK   12  A    between atoms: _22  and  _24
REMARK   13  A    between atoms: _24  and  _25
REMARK   14  A    between atoms: _27  and  _29
REMARK   15  A    between atoms: _29  and  _30
REMARK   16  A    between atoms: _29  and  _32
REMARK   17  A    between atoms: _32  and  _33
REMARK   18  A    between atoms: _33  and  _34
REMARK   19  A    between atoms: _39  and  _41
REMARK   20  A    between atoms: _41  and  _42
REMARK   21  A    between atoms: _44  and  _46
REMARK   22  A    between atoms: _46  and  _47
REMARK   23  A    between atoms: _46  and  _49
REMARK   24  A    between atoms: _49  and  _50
REMARK   25  A    between atoms: _55  and  _56
REMARK   26  A    between atoms: _58  and  _60
REMARK   27  A    between atoms: _60  and  _61
REMARK   28  A    between atoms: _60  and  _63
REMARK   29  A    between atoms: _63  and  _64
REMARK   30  A    between atoms: _67  and  _69
REMARK   31  A    between atoms: _69  and  _70
REMARK   32  A    between atoms: _69  and  _72
REMARK   33  A    between atoms: _75  and  _77
REMARK   34  A    between atoms: _77  and  _78
REMARK   35  A    between atoms: _77  and  _80
REMARK   36  A    between atoms: _80  and  _81
REMARK   37  A    between atoms: _84  and  _86
REMARK   38  A    between atoms: _86  and  _87
REMARK   39  A    between atoms: _86  and  _89
REMARK   40  A    between atoms: _89  and  _90
REMARK   41  A    between atoms: _93  and  _95
REMARK   42  A    between atoms: _95  and  _96
REMARK   43  A    between atoms: _98  and  _100
REMARK   44  A    between atoms: _100  and  _101
REMARK   45  A    between atoms: _100  and  _103
REMARK   46  A    between atoms: _103  and  _104
REMARK   47  A    between atoms: _106  and  _108
REMARK   48  A    between atoms: _108  and  _109
REMARK   49  A    between atoms: _108  and  _111
REMARK   50  A    between atoms: _111  and  _112
REMARK   51  A    between atoms: _114  and  _116
REMARK   52  A    between atoms: _116  and  _117
REMARK   53  A    between atoms: _116  and  _119
REMARK   54  A    between atoms: _119  and  _120
REMARK   55  A    between atoms: _125  and  _127
REMARK   56  A    between atoms: _127  and  _128
REMARK   57  A    between atoms: _127  and  _130
REMARK   58  A    between atoms: _130  and  _131
REMARK   59  A    between atoms: _137  and  _139
REMARK   60  A    between atoms: _139  and  _140
REMARK   61  A    between atoms: _143  and  _145
REMARK   62  A    between atoms: _145  and  _146
REMARK   63  A    between atoms: _145  and  _148
REMARK   64  A    between atoms: _151  and  _153
REMARK   65  A    between atoms: _153  and  _154
REMARK   66  A    between atoms: _153  and  _156
REMARK   67  A    between atoms: _156  and  _157
REMARK   68  A    between atoms: _162  and  _163
REMARK   69  A    between atoms: _165  and  _167
REMARK   70  A    between atoms: _167  and  _168
REMARK   71  A    between atoms: _167  and  _170
REMARK   72  A    between atoms: _174  and  _175
REMARK   73  A    between atoms: _180  and  _182
REMARK   74  A    between atoms: _182  and  _183
REMARK   75  A    between atoms: _182  and  _185
REMARK   76  A    between atoms: _185  and  _186
REMARK   77  A    between atoms: _191  and  _192
REMARK   78  A    between atoms: _194  and  _196
REMARK   79  A    between atoms: _196  and  _197
REMARK   80  A    between atoms: _196  and  _199
REMARK   81  A    between atoms: _199  and  _200
REMARK   82  A    between atoms: _203  and  _205
REMARK   83  A    between atoms: _205  and  _206
REMARK   84  A    between atoms: _205  and  _208
REMARK   85  A    between atoms: _208  and  _209
REMARK   86  A    between atoms: _209  and  _210
REMARK   87  A    between atoms: _215  and  _217
REMARK   88  A    between atoms: _217  and  _218
REMARK   89  A    between atoms: _220  and  _222
REMARK   90  A    between atoms: _222  and  _223
REMARK   91  A    between atoms: _222  and  _225
REMARK   92  A    between atoms: _225  and  _226
REMARK   93  A    between atoms: _226  and  _227
REMARK   94  A    between atoms: _227  and  _228
REMARK   95  A    between atoms: _228  and  _229
REMARK   96  A    between atoms: _233  and  _235
REMARK   97  A    between atoms: _235  and  _236
REMARK   98  A    between atoms: _235  and  _238
REMARK   99  A    between atoms: _238  and  _239
REMARK  100  A    between atoms: _249  and  _251
REMARK  101  A    between atoms: _251  and  _252
REMARK  102  A    between atoms: _255  and  _257
REMARK  103  A    between atoms: _257  and  _258
REMARK  104  A    between atoms: _257  and  _260
REMARK  105  A    between atoms: _260  and  _261
REMARK  106  A    between atoms: _261  and  _262
REMARK  107  A    between atoms: _262  and  _263
REMARK  108  A    between atoms: _263  and  _264
REMARK  109  A    between atoms: _268  and  _270
REMARK  110  A    between atoms: _270  and  _271
REMARK  111  A    between atoms: _270  and  _273
REMARK  112  A    between atoms: _273  and  _274
REMARK  113  A    between atoms: _280  and  _282
REMARK  114  A    between atoms: _282  and  _283
REMARK  115  A    between atoms: _282  and  _285
REMARK  116  A    between atoms: _285  and  _286
REMARK  117  A    between atoms: _292  and  _294
REMARK  118  A    between atoms: _294  and  _295
REMARK  119  A    between atoms: _294  and  _297
REMARK  120  A    between atoms: _297  and  _298
REMARK  121  A    between atoms: _301  and  _303
REMARK  122  A    between atoms: _303  and  _304
REMARK  123  A    between atoms: _303  and  _306
REMARK  124  A    between atoms: _306  and  _307
REMARK  125  A    between atoms: _309  and  _311
REMARK  126  A    between atoms: _311  and  _312
REMARK  127  A    between atoms: _311  and  _314
REMARK  128  A    between atoms: _314  and  _315
REMARK  129  A    between atoms: _325  and  _327
REMARK  130  A    between atoms: _327  and  _328
REMARK  131  A    between atoms: _330  and  _332
REMARK  132  A    between atoms: _332  and  _333
REMARK  133  A    between atoms: _332  and  _335
REMARK  134  A    between atoms: _335  and  _336
REMARK  135  A    between atoms: _339  and  _341
REMARK  136  A    between atoms: _341  and  _342
REMARK  137  A    between atoms: _341  and  _344
REMARK  138  A    between atoms: _344  and  _345
REMARK  139  A    between atoms: _348  and  _350
REMARK  140  A    between atoms: _350  and  _351
REMARK  141  A    between atoms: _353  and  _355
REMARK  142  A    between atoms: _355  and  _356
REMARK  143  A    between atoms: _355  and  _358
REMARK  144  A    between atoms: _358  and  _359
REMARK  145  A    between atoms: _362  and  _364
REMARK  146  A    between atoms: _364  and  _365
REMARK  147  A    between atoms: _364  and  _367
REMARK  148  A    between atoms: _367  and  _368
REMARK  149  A    between atoms: _371  and  _373
REMARK  150  A    between atoms: _373  and  _374
REMARK  151  A    between atoms: _377  and  _379
REMARK  152  A    between atoms: _379  and  _380
REMARK  153  A    between atoms: _379  and  _382
REMARK  154  A    between atoms: _382  and  _383
REMARK  155  A    between atoms: _383  and  _384
REMARK  156  A    between atoms: _384  and  _385
REMARK  157  A    between atoms: _395  and  _396
REMARK  158  A    between atoms: _401  and  _403
REMARK  159  A    between atoms: _403  and  _404
REMARK  160  A    between atoms: _403  and  _406
REMARK  161  A    between atoms: _406  and  _407
REMARK  162  A    between atoms: _410  and  _412
REMARK  163  A    between atoms: _412  and  _413
REMARK  164  A    between atoms: _412  and  _415
REMARK  165  A    between atoms: _415  and  _416
REMARK  166  A    between atoms: _421  and  _422
REMARK  167  A    between atoms: _424  and  _426
REMARK  168  A    between atoms: _426  and  _427
REMARK  169  A    between atoms: _426  and  _429
REMARK  170  A    between atoms: _429  and  _430
REMARK  171  A    between atoms: _433  and  _435
REMARK  172  A    between atoms: _435  and  _436
REMARK  173  A    between atoms: _435  and  _438
REMARK  174  A    between atoms: _441  and  _443
REMARK  175  A    between atoms: _443  and  _444
REMARK  176  A    between atoms: _443  and  _446
REMARK  177  A    between atoms: _446  and  _447
REMARK  178  A    between atoms: _450  and  _452
REMARK  179  A    between atoms: _452  and  _453
REMARK  180  A    between atoms: _452  and  _455
REMARK  181  A    between atoms: _455  and  _456
REMARK  182  A    between atoms: _458  and  _460
REMARK  183  A    between atoms: _460  and  _461
REMARK  184  A    between atoms: _463  and  _465
REMARK  185  A    between atoms: _465  and  _466
REMARK  186  A    between atoms: _465  and  _468
REMARK  187  A    between atoms: _468  and  _469
REMARK  188  A    between atoms: _472  and  _474
REMARK  189  A    between atoms: _474  and  _475
REMARK  190  A    between atoms: _474  and  _477
REMARK  191  A    between atoms: _477  and  _478
REMARK  192  A    between atoms: _481  and  _483
REMARK  193  A    between atoms: _483  and  _484
REMARK  194  A    between atoms: _483  and  _486
REMARK  195  A    between atoms: _486  and  _487
REMARK  196  A    between atoms: _492  and  _494
REMARK  197  A    between atoms: _494  and  _495
REMARK  198  A    between atoms: _494  and  _497
REMARK  199  A    between atoms: _497  and  _498
REMARK  200  A    between atoms: _498  and  _499
REMARK  201  A    between atoms: _499  and  _500
REMARK  202  A    between atoms: _509  and  _511
REMARK  203  A    between atoms: _511  and  _512
REMARK  204  A    between atoms: _511  and  _514
REMARK  205  A    between atoms: _514  and  _515
REMARK  206  A    between atoms: _518  and  _520
REMARK  207  A    between atoms: _520  and  _521
REMARK  208  A    between atoms: _520  and  _523
REMARK  209  A    between atoms: _526  and  _528
REMARK  210  A    between atoms: _528  and  _529
REMARK  211  A    between atoms: _531  and  _533
REMARK  212  A    between atoms: _533  and  _534
REMARK  213  A    between atoms: _537  and  _539
REMARK  214  A    between atoms: _539  and  _540
REMARK  215  A    between atoms: _539  and  _542
REMARK                            x       y       z     vdW  Elec       q    Type
REMARK                         _______ _______ _______ _____ _____    ______ ____
ROOT
ATOM      1  CG  TRP A   1      28.910   6.847  14.677  0.00  0.00    -0.002 A 
ATOM      2  CD1 TRP A   1      29.933   7.630  15.143  0.00  0.00    +0.068 A 
ATOM      3  NE1 TRP A   1      29.469   8.889  15.439  0.00  0.00    -0.352 N 
ATOM      4  HE1 TRP A   1      30.045   9.673  15.807  0.00  0.00    +0.166 HD
ATOM      5  CE2 TRP A   1      28.127   8.947  15.172  0.00  0.00    +0.056 A 
ATOM      6  CZ2 TRP A   1      27.224  10.001  15.315  0.00  0.00    +0.017 A 
ATOM      7  CH2 TRP A   1      25.922   9.772  14.968  0.00  0.00    +0.001 A 
ATOM      8  CZ3 TRP A   1      25.507   8.524  14.485  0.00  0.00    +0.000 A 
ATOM      9  CE3 TRP A   1      26.405   7.475  14.342  0.00  0.00    +0.001 A 
ATOM     10  CD2 TRP A   1      27.738   7.677  14.690  0.00  0.00    +0.013 A 
ENDROOT
BRANCH   1  11
ATOM     11  CB  TRP A   1      29.010   5.417  14.196  0.00  0.00    +0.053 C 
BRANCH  11  12
ATOM     12  CA  TRP A   1      29.434   5.261  12.716  0.00  0.00    +0.137 C 
BRANCH  12  13
ATOM     13  N   TRP A   1      30.681   5.968  12.440  0.00  0.00    -0.239 NA
ATOM     14  H   TRP A   1      30.823   6.929  12.812  0.00  0.00    +0.142 HD
ENDBRANCH  12  13
BRANCH  12  15
ATOM     15  C   TRP A   1      28.334   5.775  11.785  0.00  0.00    +0.224 C 
ATOM     16  O   TRP A   1      28.317   6.950  11.399  0.00  0.00    -0.287 OA
ENDBRANCH  12  15
ENDBRANCH  11  12
ENDBRANCH   1  11
TORSDOF 4
REMARK  Name = ../refined-set-2016/4h3j/4h3j_pocket.pdb
REMARK  215 active torsions:
REMARK  status: ('A' for Active; 'I' for Inactive)
REMARK    1  A    between atoms: _1  and  _3
REMARK    2  A    between atoms: _3  and  _4
REMARK    3  A    between atoms: _3  and  _6
REMARK    4  A    between atoms: _6  and  _7
REMARK    5  A    between atoms: _7  and  _8
REMARK    6  A    between atoms: _8  and  _9
REMARK    7  A    between atoms: _9  and  _10
REMARK    8  A    between atoms: _14  and  _16
REMARK    9  A    between atoms: _16  and  _17
REMARK   10  A    between atoms: _16  and  _19
REMARK   11  A    between atoms: _19  and  _20
REMARK   12  A    between atoms: _22  and  _24
REMARK   13  A    between atoms: _24  and  _25
REMARK   14  A    between atoms: _27  and  _29
REMARK   15  A    between atoms: _29  and  _30
REMARK   16  A    between atoms: _29  and  _32
REMARK   17  A    between atoms: _32  and  _33
REMARK   18  A    between atoms: _33  and  _34
REMARK   19  A    between atoms: _39  and  _41
REMARK   20  A    between atoms: _41  and  _42
REMARK   21  A    between atoms: _44  and  _46
REMARK   22  A    between atoms: _46  and  _47
REMARK   23  A    between atoms: _46  and  _49
REMARK   24  A    between atoms: _49  and  _50
REMARK   25  A    between atoms: _55  and  _56
REMARK   26  A    between atoms: _58  and  _60
REMARK   27  A    between atoms: _60  and  _61
REMARK   28  A    between atoms: _60  and  _63
REMARK   29  A    between atoms: _63  and  _64
REMARK   30  A    between atoms: _67  and  _69
REMARK   31  A    between atoms: _69  and  _70
REMARK   32  A    between atoms: _69  and  _72
REMARK   33  A    between atoms: _75  and  _77
REMARK   34  A    between atoms: _77  and  _78
REMARK   35  A    between atoms: _77  and  _80
REMARK   36  A    between atoms: _80  and  _81
REMARK   37  A    between atoms: _84  and  _86
REMARK   38  A    between atoms: _86  and  _87
REMARK   39  A    between atoms: _86  and  _89
REMARK   40  A    between atoms: _89  and  _90
REMARK   41  A    between atoms: _93  and  _95
REMARK   42  A    between atoms: _95  and  _96
REMARK   43  A    between atoms: _98  and  _100
REMARK   44  A    between atoms: _100  and  _101
REMARK   45  A    between atoms: _100  and  _103
REMARK   46  A    between atoms: _103  and  _104
REMARK   47  A    between atoms: _106  and  _108
REMARK   48  A    between atoms: _108  and  _109
REMARK   49  A    between atoms: _108  and  _111
REMARK   50  A    between atoms: _111  and  _112
REMARK   51  A    between atoms: _114  and  _116
REMARK   52  A    between atoms: _116  and  _117
REMARK   53  A    between atoms: _116  and  _119
REMARK   54  A    between atoms: _119  and  _120
REMARK   55  A    between atoms: _125  and  _127
REMARK   56  A    between atoms: _127  and  _128
REMARK   57  A    between atoms: _127  and  _130
REMARK   58  A    between atoms: _130  and  _131
REMARK   59  A    between atoms: _137  and  _139
REMARK   60  A    between atoms: _139  and  _140
REMARK   61  A    between atoms: _143  and  _145
REMARK   62  A    between atoms: _145  and  _146
REMARK   63  A    between atoms: _145  and  _148
REMARK   64  A    between atoms: _151  and  _153
REMARK   65  A    between atoms: _153  and  _154
REMARK   66  A    between atoms: _153  and  _156
REMARK   67  A    between atoms: _156  and  _157
REMARK   68  A    between atoms: _162  and  _163
REMARK   69  A    between atoms: _165  and  _167
REMARK   70  A    between atoms: _167  and  _168
REMARK   71  A    between atoms: _167  and  _170
REMARK   72  A    between atoms: _174  and  _175
REMARK   73  A    between atoms: _180  and  _182
REMARK   74  A    between atoms: _182  and  _183
REMARK   75  A    between atoms: _182  and  _185
REMARK   76  A    between atoms: _185  and  _186
REMARK   77  A    between atoms: _191  and  _192
REMARK   78  A    between atoms: _194  and  _196
REMARK   79  A    between atoms: _196  and  _197
REMARK   80  A    between atoms: _196  and  _199
REMARK   81  A    between atoms: _199  and  _200
REMARK   82  A    between atoms: _203  and  _205
REMARK   83  A    between atoms: _205  and  _206
REMARK   84  A    between atoms: _205  and  _208
REMARK   85  A    between atoms: _208  and  _209
REMARK   86  A    between atoms: _209  and  _210
REMARK   87  A    between atoms: _215  and  _217
REMARK   88  A    between atoms: _217  and  _218
REMARK   89  A    between atoms: _220  and  _222
REMARK   90  A    between atoms: _222  and  _223
REMARK   91  A    between atoms: _222  and  _225
REMARK   92  A    between atoms: _225  and  _226
REMARK   93  A    between atoms: _226  and  _227
REMARK   94  A    between atoms: _227  and  _228
REMARK   95  A    between atoms: _228  and  _229
REMARK   96  A    between atoms: _233  and  _235
REMARK   97  A    between atoms: _235  and  _236
REMARK   98  A    between atoms: _235  and  _238
REMARK   99  A    between atoms: _238  and  _239
REMARK  100  A    between atoms: _249  and  _251
REMARK  101  A    between atoms: _251  and  _252
REMARK  102  A    between atoms: _255  and  _257
REMARK  103  A    between atoms: _257  and  _258
REMARK  104  A    between atoms: _257  and  _260
REMARK  105  A    between atoms: _260  and  _261
REMARK  106  A    between atoms: _261  and  _262
REMARK  107  A    between atoms: _262  and  _263
REMARK  108  A    between atoms: _263  and  _264
REMARK  109  A    between atoms: _268  and  _270
REMARK  110  A    between atoms: _270  and  _271
REMARK  111  A    between atoms: _270  and  _273
REMARK  112  A    between atoms: _273  and  _274
REMARK  113  A    between atoms: _280  and  _282
REMARK  114  A    between atoms: _282  and  _283
REMARK  115  A    between atoms: _282  and  _285
REMARK  116  A    between atoms: _285  and  _286
REMARK  117  A    between atoms: _292  and  _294
REMARK  118  A    between atoms: _294  and  _295
REMARK  119  A    between atoms: _294  and  _297
REMARK  120  A    between atoms: _297  and  _298
REMARK  121  A    between atoms: _301  and  _303
REMARK  122  A    between atoms: _303  and  _304
REMARK  123  A    between atoms: _303  and  _306
REMARK  124  A    between atoms: _306  and  _307
REMARK  125  A    between atoms: _309  and  _311
REMARK  126  A    between atoms: _311  and  _312
REMARK  127  A    between atoms: _311  and  _314
REMARK  128  A    between atoms: _314  and  _315
REMARK  129  A    between atoms: _325  and  _327
REMARK  130  A    between atoms: _327  and  _328
REMARK  131  A    between atoms: _330  and  _332
REMARK  132  A    between atoms: _332  and  _333
REMARK  133  A    between atoms: _332  and  _335
REMARK  134  A    between atoms: _335  and  _336
REMARK  135  A    between atoms: _339  and  _341
REMARK  136  A    between atoms: _341  and  _342
REMARK  137  A    between atoms: _341  and  _344
REMARK  138  A    between atoms: _344  and  _345
REMARK  139  A    between atoms: _348  and  _350
REMARK  140  A    between atoms: _350  and  _351
REMARK  141  A    between atoms: _353  and  _355
REMARK  142  A    between atoms: _355  and  _356
REMARK  143  A    between atoms: _355  and  _358
REMARK  144  A    between atoms: _358  and  _359
REMARK  145  A    between atoms: _362  and  _364
REMARK  146  A    between atoms: _364  and  _365
REMARK  147  A    between atoms: _364  and  _367
REMARK  148  A    between atoms: _367  and  _368
REMARK  149  A    between atoms: _371  and  _373
REMARK  150  A    between atoms: _373  and  _374
REMARK  151  A    between atoms: _377  and  _379
REMARK  152  A    between atoms: _379  and  _380
REMARK  153  A    between atoms: _379  and  _382
REMARK  154  A    between atoms: _382  and  _383
REMARK  155  A    between atoms: _383  and  _384
REMARK  156  A    between atoms: _384  and  _385
REMARK  157  A    between atoms: _395  and  _396
REMARK  158  A    between atoms: _401  and  _403
REMARK  159  A    between atoms: _403  and  _404
REMARK  160  A    between atoms: _403  and  _406
REMARK  161  A    between atoms: _406  and  _407
REMARK  162  A    between atoms: _410  and  _412
REMARK  163  A    between atoms: _412  and  _413
REMARK  164  A    between atoms: _412  and  _415
REMARK  165  A    between atoms: _415  and  _416
REMARK  166  A    between atoms: _421  and  _422
REMARK  167  A    between atoms: _424  and  _426
REMARK  168  A    between atoms: _426  and  _427
REMARK  169  A    between atoms: _426  and  _429
REMARK  170  A    between atoms: _429  and  _430
REMARK  171  A    between atoms: _433  and  _435
REMARK  172  A    between atoms: _435  and  _436
REMARK  173  A    between atoms: _435  and  _438
REMARK  174  A    between atoms: _441  and  _443
REMARK  175  A    between atoms: _443  and  _444
REMARK  176  A    between atoms: _443  and  _446
REMARK  177  A    between atoms: _446  and  _447
REMARK  178  A    between atoms: _450  and  _452
REMARK  179  A    between atoms: _452  and  _453
REMARK  180  A    between atoms: _452  and  _455
REMARK  181  A    between atoms: _455  and  _456
REMARK  182  A    between atoms: _458  and  _460
REMARK  183  A    between atoms: _460  and  _461
REMARK  184  A    between atoms: _463  and  _465
REMARK  185  A    between atoms: _465  and  _466
REMARK  186  A    between atoms: _465  and  _468
REMARK  187  A    between atoms: _468  and  _469
REMARK  188  A    between atoms: _472  and  _474
REMARK  189  A    between atoms: _474  and  _475
REMARK  190  A    between atoms: _474  and  _477
REMARK  191  A    between atoms: _477  and  _478
REMARK  192  A    between atoms: _481  and  _483
REMARK  193  A    between atoms: _483  and  _484
REMARK  194  A    between atoms: _483  and  _486
REMARK  195  A    between atoms: _486  and  _487
REMARK  196  A    between atoms: _492  and  _494
REMARK  197  A    between atoms: _494  and  _495
REMARK  198  A    between atoms: _494  and  _497
REMARK  199  A    between atoms: _497  and  _498
REMARK  200  A    between atoms: _498  and  _499
REMARK  201  A    between atoms: _499  and  _500
REMARK  202  A    between atoms: _509  and  _511
REMARK  203  A    between atoms: _511  and  _512
REMARK  204  A    between atoms: _511  and  _514
REMARK  205  A    between atoms: _514  and  _515
REMARK  206  A    between atoms: _518  and  _520
REMARK  207  A    between atoms: _520  and  _521
REMARK  208  A    between atoms: _520  and  _523
REMARK  209  A    between atoms: _526  and  _528
REMARK  210  A    between atoms: _528  and  _529
REMARK  211  A    between atoms: _531  and  _533
REMARK  212  A    between atoms: _533  and  _534
REMARK  213  A    between atoms: _537  and  _539
REMARK  214  A    between atoms: _539  and  _540
REMARK  215  A    between atoms: _539  and  _542
REMARK                            x       y       z     vdW  Elec       q    Type
REMARK                         _______ _______ _______ _____ _____    ______ ____
ROOT
ATOM      1  CA  LEU A   3      21.734   1.263  18.869  0.00  0.00    +0.149 C 
ENDROOT
BRANCH   1   2
ATOM      2  C   LEU A   3      21.337   1.676  20.284  0.00  0.00    +0.241 C 
ATOM      3  O   LEU A   3      22.172   1.680  21.194  0.00  0.00    -0.273 OA
ATOM      4  N   GLY A   4      20.073   2.076  20.441  0.00  0.00    -0.295 N 
ATOM      5  H   GLY A   4      19.438   2.108  19.618  0.00  0.00    +0.150 HD
BRANCH   4   6
ATOM      6  CA  GLY A   4      19.573   2.469  21.753  0.00  0.00    +0.176 C 
BRANCH   6   7
ATOM      7  C   GLY A   4      19.277   1.225  22.565  0.00  0.00    +0.243 C 
ATOM      8  N   LEU A   5      19.998   1.075  23.666  0.00  0.00    -0.298 N 
ATOM      9  H   LEU A   5      20.668   1.824  23.932  0.00  0.00    +0.150 HD
ATOM     10  O   GLY A   4      18.396   0.426  22.225  0.00  0.00    -0.273 OA
BRANCH   8  11
ATOM     11  CA  LEU A   5      19.887  -0.096  24.514  0.00  0.00    +0.137 C 
BRANCH  11  12
ATOM     12  C   LEU A   5      19.037   0.060  25.774  0.00  0.00    +0.227 C 
ATOM     13  O   LEU A   5      18.926  -0.878  26.562  0.00  0.00    -0.286 OA
ENDBRANCH  11  12
BRANCH  11  14
ATOM     14  CB  LEU A   5      21.302  -0.566  24.880  0.00  0.00    +0.028 C 
BRANCH  14  15
ATOM     15  CG  LEU A   5      22.084  -1.144  23.703  0.00  0.00    +0.002 C 
ATOM     16  CD2 LEU A   5      23.549  -1.329  24.136  0.00  0.00    +0.000 C 
ATOM     17  CD1 LEU A   5      21.500  -2.504  23.287  0.00  0.00    +0.000 C 
ENDBRANCH  14  15
ENDBRANCH  11  14
ENDBRANCH   8  11
ENDBRANCH   6   7
ENDBRANCH   4   6
ENDBRANCH   1   2
BRANCH   1  19
ATOM     18  C   ILE A   2      21.943   3.089  17.283  0.00  0.00    +0.241 C 
ATOM     19  N   LEU A   3      22.457   2.371  18.281  0.00  0.00    -0.297 N 
ATOM     20  H   LEU A   3      23.400   2.612  18.646  0.00  0.00    +0.150 HD
ATOM     21  O   ILE A   2      20.843   2.843  16.760  0.00  0.00    -0.273 OA
BRANCH  18  22
ATOM     22  CA  ILE A   2      22.790   4.239  16.793  0.00  0.00    +0.148 C 
BRANCH  22  24
ATOM     23  C   GLY A   1      23.819   4.483  14.587  0.00  0.00    +0.240 C 
ATOM     24  N   ILE A   2      22.735   4.357  15.338  0.00  0.00    -0.297 N 
ATOM     25  H   ILE A   2      21.805   4.341  14.872  0.00  0.00    +0.150 HD
ATOM     26  O   GLY A   1      24.964   4.494  15.038  0.00  0.00    -0.274 OA
BRANCH  23  27
ATOM     27  CA  GLY A   1      23.591   4.617  13.092  0.00  0.00    +0.169 C 
BRANCH  27  28
ATOM     28  N   GLY A   1      24.879   4.759  12.432  0.00  0.00    -0.236 NA
ATOM     29  H   GLY A   1      25.756   4.620  12.973  0.00  0.00    +0.142 HD
ENDBRANCH  27  28
ENDBRANCH  23  27
ENDBRANCH  22  24
BRANCH  22  30
ATOM     30  CB  ILE A   2      22.282   5.532  17.459  0.00  0.00    +0.027 C 
ATOM     31  CG2 ILE A   2      22.280   5.376  18.957  0.00  0.00    +0.002 C 
BRANCH  30  32
ATOM     32  CG1 ILE A   2      23.149   6.707  17.037  0.00  0.00    +0.002 C 
ATOM     33  CD1 ILE A   2      22.836   7.989  17.795  0.00  0.00    +0.000 C 
ENDBRANCH  30  32
ENDBRANCH  22  30
ENDBRANCH  18  22
ENDBRANCH   1  19
BRANCH   1  34
ATOM     34  CB  LEU A   3      22.619   0.015  18.908  0.00  0.00    +0.029 C 
BRANCH  34  35
ATOM     35  CG  LEU A   3      22.012  -1.217  19.597  0.00  0.00    +0.002 C 
ATOM     36  CD2 LEU A   3      23.049  -2.326  19.650  0.00  0.00    +0.000 C 
ATOM     37  CD1 LEU A   3      20.756  -1.674  18.842  0.00  0.00    +0.000 C 
ENDBRANCH  34  35
ENDBRANCH   1  34
TORSDOF 16
REMARK  Name = ../refined-set-2016/4h3j/4h3j_pocket.pdb
REMARK  215 active torsions:
REMARK  status: ('A' for Active; 'I' for Inactive)
REMARK    1  A    between atoms: _1  and  _3
REMARK    2  A    between atoms: _3  and  _4
REMARK    3  A    between atoms: _3  and  _6
REMARK    4  A    between atoms: _6  and  _7
REMARK    5  A    between atoms: _7  and  _8
REMARK    6  A    between atoms: _8  and  _9
REMARK    7  A    between atoms: _9  and  _10
REMARK    8  A    between atoms: _14  and  _16
REMARK    9  A    between atoms: _16  and  _17
REMARK   10  A    between atoms: _16  and  _19
REMARK   11  A    between atoms: _19  and  _20
REMARK   12  A    between atoms: _22  and  _24
REMARK   13  A    between atoms: _24  and  _25
REMARK   14  A    between atoms: _27  and  _29
REMARK   15  A    between atoms: _29  and  _30
REMARK   16  A    between atoms: _29  and  _32
REMARK   17  A    between atoms: _32  and  _33
REMARK   18  A    between atoms: _33  and  _34
REMARK   19  A    between atoms: _39  and  _41
REMARK   20  A    between atoms: _41  and  _42
REMARK   21  A    between atoms: _44  and  _46
REMARK   22  A    between atoms: _46  and  _47
REMARK   23  A    between atoms: _46  and  _49
REMARK   24  A    between atoms: _49  and  _50
REMARK   25  A    between atoms: _55  and  _56
REMARK   26  A    between atoms: _58  and  _60
REMARK   27  A    between atoms: _60  and  _61
REMARK   28  A    between atoms: _60  and  _63
REMARK   29  A    between atoms: _63  and  _64
REMARK   30  A    between atoms: _67  and  _69
REMARK   31  A    between atoms: _69  and  _70
REMARK   32  A    between atoms: _69  and  _72
REMARK   33  A    between atoms: _75  and  _77
REMARK   34  A    between atoms: _77  and  _78
REMARK   35  A    between atoms: _77  and  _80
REMARK   36  A    between atoms: _80  and  _81
REMARK   37  A    between atoms: _84  and  _86
REMARK   38  A    between atoms: _86  and  _87
REMARK   39  A    between atoms: _86  and  _89
REMARK   40  A    between atoms: _89  and  _90
REMARK   41  A    between atoms: _93  and  _95
REMARK   42  A    between atoms: _95  and  _96
REMARK   43  A    between atoms: _98  and  _100
REMARK   44  A    between atoms: _100  and  _101
REMARK   45  A    between atoms: _100  and  _103
REMARK   46  A    between atoms: _103  and  _104
REMARK   47  A    between atoms: _106  and  _108
REMARK   48  A    between atoms: _108  and  _109
REMARK   49  A    between atoms: _108  and  _111
REMARK   50  A    between atoms: _111  and  _112
REMARK   51  A    between atoms: _114  and  _116
REMARK   52  A    between atoms: _116  and  _117
REMARK   53  A    between atoms: _116  and  _119
REMARK   54  A    between atoms: _119  and  _120
REMARK   55  A    between atoms: _125  and  _127
REMARK   56  A    between atoms: _127  and  _128
REMARK   57  A    between atoms: _127  and  _130
REMARK   58  A    between atoms: _130  and  _131
REMARK   59  A    between atoms: _137  and  _139
REMARK   60  A    between atoms: _139  and  _140
REMARK   61  A    between atoms: _143  and  _145
REMARK   62  A    between atoms: _145  and  _146
REMARK   63  A    between atoms: _145  and  _148
REMARK   64  A    between atoms: _151  and  _153
REMARK   65  A    between atoms: _153  and  _154
REMARK   66  A    between atoms: _153  and  _156
REMARK   67  A    between atoms: _156  and  _157
REMARK   68  A    between atoms: _162  and  _163
REMARK   69  A    between atoms: _165  and  _167
REMARK   70  A    between atoms: _167  and  _168
REMARK   71  A    between atoms: _167  and  _170
REMARK   72  A    between atoms: _174  and  _175
REMARK   73  A    between atoms: _180  and  _182
REMARK   74  A    between atoms: _182  and  _183
REMARK   75  A    between atoms: _182  and  _185
REMARK   76  A    between atoms: _185  and  _186
REMARK   77  A    between atoms: _191  and  _192
REMARK   78  A    between atoms: _194  and  _196
REMARK   79  A    between atoms: _196  and  _197
REMARK   80  A    between atoms: _196  and  _199
REMARK   81  A    between atoms: _199  and  _200
REMARK   82  A    between atoms: _203  and  _205
REMARK   83  A    between atoms: _205  and  _206
REMARK   84  A    between atoms: _205  and  _208
REMARK   85  A    between atoms: _208  and  _209
REMARK   86  A    between atoms: _209  and  _210
REMARK   87  A    between atoms: _215  and  _217
REMARK   88  A    between atoms: _217  and  _218
REMARK   89  A    between atoms: _220  and  _222
REMARK   90  A    between atoms: _222  and  _223
REMARK   91  A    between atoms: _222  and  _225
REMARK   92  A    between atoms: _225  and  _226
REMARK   93  A    between atoms: _226  and  _227
REMARK   94  A    between atoms: _227  and  _228
REMARK   95  A    between atoms: _228  and  _229
REMARK   96  A    between atoms: _233  and  _235
REMARK   97  A    between atoms: _235  and  _236
REMARK   98  A    between atoms: _235  and  _238
REMARK   99  A    between atoms: _238  and  _239
REMARK  100  A    between atoms: _249  and  _251
REMARK  101  A    between atoms: _251  and  _252
REMARK  102  A    between atoms: _255  and  _257
REMARK  103  A    between atoms: _257  and  _258
REMARK  104  A    between atoms: _257  and  _260
REMARK  105  A    between atoms: _260  and  _261
REMARK  106  A    between atoms: _261  and  _262
REMARK  107  A    between atoms: _262  and  _263
REMARK  108  A    between atoms: _263  and  _264
REMARK  109  A    between atoms: _268  and  _270
REMARK  110  A    between atoms: _270  and  _271
REMARK  111  A    between atoms: _270  and  _273
REMARK  112  A    between atoms: _273  and  _274
REMARK  113  A    between atoms: _280  and  _282
REMARK  114  A    between atoms: _282  and  _283
REMARK  115  A    between atoms: _282  and  _285
REMARK  116  A    between atoms: _285  and  _286
REMARK  117  A    between atoms: _292  and  _294
REMARK  118  A    between atoms: _294  and  _295
REMARK  119  A    between atoms: _294  and  _297
REMARK  120  A    between atoms: _297  and  _298
REMARK  121  A    between atoms: _301  and  _303
REMARK  122  A    between atoms: _303  and  _304
REMARK  123  A    between atoms: _303  and  _306
REMARK  124  A    between atoms: _306  and  _307
REMARK  125  A    between atoms: _309  and  _311
REMARK  126  A    between atoms: _311  and  _312
REMARK  127  A    between atoms: _311  and  _314
REMARK  128  A    between atoms: _314  and  _315
REMARK  129  A    between atoms: _325  and  _327
REMARK  130  A    between atoms: _327  and  _328
REMARK  131  A    between atoms: _330  and  _332
REMARK  132  A    between atoms: _332  and  _333
REMARK  133  A    between atoms: _332  and  _335
REMARK  134  A    between atoms: _335  and  _336
REMARK  135  A    between atoms: _339  and  _341
REMARK  136  A    between atoms: _341  and  _342
REMARK  137  A    between atoms: _341  and  _344
REMARK  138  A    between atoms: _344  and  _345
REMARK  139  A    between atoms: _348  and  _350
REMARK  140  A    between atoms: _350  and  _351
REMARK  141  A    between atoms: _353  and  _355
REMARK  142  A    between atoms: _355  and  _356
REMARK  143  A    between atoms: _355  and  _358
REMARK  144  A    between atoms: _358  and  _359
REMARK  145  A    between atoms: _362  and  _364
REMARK  146  A    between atoms: _364  and  _365
REMARK  147  A    between atoms: _364  and  _367
REMARK  148  A    between atoms: _367  and  _368
REMARK  149  A    between atoms: _371  and  _373
REMARK  150  A    between atoms: _373  and  _374
REMARK  151  A    between atoms: _377  and  _379
REMARK  152  A    between atoms: _379  and  _380
REMARK  153  A    between atoms: _379  and  _382
REMARK  154  A    between atoms: _382  and  _383
REMARK  155  A    between atoms: _383  and  _384
REMARK  156  A    between atoms: _384  and  _385
REMARK  157  A    between atoms: _395  and  _396
REMARK  158  A    between atoms: _401  and  _403
REMARK  159  A    between atoms: _403  and  _404
REMARK  160  A    between atoms: _403  and  _406
REMARK  161  A    between atoms: _406  and  _407
REMARK  162  A    between atoms: _410  and  _412
REMARK  163  A    between atoms: _412  and  _413
REMARK  164  A    between atoms: _412  and  _415
REMARK  165  A    between atoms: _415  and  _416
REMARK  166  A    between atoms: _421  and  _422
REMARK  167  A    between atoms: _424  and  _426
REMARK  168  A    between atoms: _426  and  _427
REMARK  169  A    between atoms: _426  and  _429
REMARK  170  A    between atoms: _429  and  _430
REMARK  171  A    between atoms: _433  and  _435
REMARK  172  A    between atoms: _435  and  _436
REMARK  173  A    between atoms: _435  and  _438
REMARK  174  A    between atoms: _441  and  _443
REMARK  175  A    between atoms: _443  and  _444
REMARK  176  A    between atoms: _443  and  _446
REMARK  177  A    between atoms: _446  and  _447
REMARK  178  A    between atoms: _450  and  _452
REMARK  179  A    between atoms: _452  and  _453
REMARK  180  A    between atoms: _452  and  _455
REMARK  181  A    between atoms: _455  and  _456
REMARK  182  A    between atoms: _458  and  _460
REMARK  183  A    between atoms: _460  and  _461
REMARK  184  A    between atoms: _463  and  _465
REMARK  185  A    between atoms: _465  and  _466
REMARK  186  A    between atoms: _465  and  _468
REMARK  187  A    between atoms: _468  and  _469
REMARK  188  A    between atoms: _472  and  _474
REMARK  189  A    between atoms: _474  and  _475
REMARK  190  A    between atoms: _474  and  _477
REMARK  191  A    between atoms: _477  and  _478
REMARK  192  A    between atoms: _481  and  _483
REMARK  193  A    between atoms: _483  and  _484
REMARK  194  A    between atoms: _483  and  _486
REMARK  195  A    between atoms: _486  and  _487
REMARK  196  A    between atoms: _492  and  _494
REMARK  197  A    between atoms: _494  and  _495
REMARK  198  A    between atoms: _494  and  _497
REMARK  199  A    between atoms: _497  and  _498
REMARK  200  A    between atoms: _498  and  _499
REMARK  201  A    between atoms: _499  and  _500
REMARK  202  A    between atoms: _509  and  _511
REMARK  203  A    between atoms: _511  and  _512
REMARK  204  A    between atoms: _511  and  _514
REMARK  205  A    between atoms: _514  and  _515
REMARK  206  A    between atoms: _518  and  _520
REMARK  207  A    between atoms: _520  and  _521
REMARK  208  A    between atoms: _520  and  _523
REMARK  209  A    between atoms: _526  and  _528
REMARK  210  A    between atoms: _528  and  _529
REMARK  211  A    between atoms: _531  and  _533
REMARK  212  A    between atoms: _533  and  _534
REMARK  213  A    between atoms: _537  and  _539
REMARK  214  A    between atoms: _539  and  _540
REMARK  215  A    between atoms: _539  and  _542
REMARK                            x       y       z     vdW  Elec       q    Type
REMARK                         _______ _______ _______ _____ _____    ______ ____
ROOT
ATOM      1  CA  ARG A   3      10.205   7.313  19.951  0.00  0.00    +0.149 C 
ENDROOT
BRANCH   1   2
ATOM      2  C   ARG A   3       9.702   6.572  18.725  0.00  0.00    +0.244 C 
ATOM      3  N   PRO A   4       8.493   6.912  18.253  0.00  0.00    -0.273 N 
ATOM      4  CA  PRO A   4       7.576   7.936  18.780  0.00  0.00    +0.140 C 
ATOM      5  CB  PRO A   4       6.543   8.072  17.664  0.00  0.00    +0.030 C 
ATOM      6  CG  PRO A   4       6.473   6.665  17.113  0.00  0.00    +0.024 C 
ATOM      7  CD  PRO A   4       7.935   6.255  17.055  0.00  0.00    +0.094 C 
ATOM      8  O   ARG A   3      10.395   5.718  18.175  0.00  0.00    -0.273 OA
BRANCH   4   9
ATOM      9  C   PRO A   4       6.925   7.666  20.134  0.00  0.00    +0.227 C 
ATOM     10  O   PRO A   4       6.516   8.604  20.821  0.00  0.00    -0.286 OA
ENDBRANCH   4   9
ENDBRANCH   1   2
BRANCH   1  13
ATOM     11  C   ALA A   2      10.633   5.982  21.938  0.00  0.00    +0.241 C 
ATOM     12  O   ALA A   2       9.617   6.423  22.502  0.00  0.00    -0.273 OA
ATOM     13  N   ARG A   3      11.006   6.365  20.722  0.00  0.00    -0.297 N 
ATOM     14  H   ARG A   3      11.883   5.984  20.312  0.00  0.00    +0.150 HD
BRANCH  11  15
ATOM     15  CA  ALA A   2      11.529   4.969  22.645  0.00  0.00    +0.149 C 
ATOM     16  CB  ALA A   2      11.108   3.557  22.287  0.00  0.00    +0.031 C 
BRANCH  15  18
ATOM     17  C   ILE A   1      11.958   6.234  24.662  0.00  0.00    +0.238 C 
ATOM     18  N   ALA A   2      11.406   5.170  24.087  0.00  0.00    -0.297 N 
ATOM     19  H   ALA A   2      10.886   4.479  24.665  0.00  0.00    +0.150 HD
ATOM     20  O   ILE A   1      12.600   7.067  24.028  0.00  0.00    -0.274 OA
BRANCH  17  21
ATOM     21  CA  ILE A   1      11.732   6.388  26.176  0.00  0.00    +0.145 C 
BRANCH  21  22
ATOM     22  N   ILE A   1      11.188   5.207  26.829  0.00  0.00    -0.238 NA
ATOM     23  H   ILE A   1      11.810   4.398  27.030  0.00  0.00    +0.142 HD
ENDBRANCH  21  22
BRANCH  21  24
ATOM     24  CB  ILE A   1      13.041   6.856  26.877  0.00  0.00    +0.025 C 
ATOM     25  CG2 ILE A   1      12.750   7.199  28.358  0.00  0.00    +0.002 C 
BRANCH  24  26
ATOM     26  CG1 ILE A   1      14.086   5.747  26.846  0.00  0.00    +0.002 C 
ATOM     27  CD1 ILE A   1      15.469   6.209  27.312  0.00  0.00    +0.000 C 
ENDBRANCH  24  26
ENDBRANCH  21  24
ENDBRANCH  17  21
ENDBRANCH  15  18
ENDBRANCH  11  15
ENDBRANCH   1  13
BRANCH   1  28
ATOM     28  CB  ARG A   3      11.052   8.515  19.542  0.00  0.00    +0.033 C 
BRANCH  28  29
ATOM     29  CG  ARG A   3      11.620   9.248  20.749  0.00  0.00    +0.045 C 
BRANCH  29  30
ATOM     30  CD  ARG A   3      10.510   9.840  21.593  0.00  0.00    +0.174 C 
BRANCH  30  31
ATOM     31  NE  ARG A   3      10.149  11.166  21.108  0.00  0.00    -0.265 N 
ATOM     32  CZ  ARG A   3      10.923  12.238  21.244  0.00  0.00    +0.342 C 
ATOM     33  NH2 ARG A   3      12.096  12.136  21.858  0.00  0.00    -0.292 N 
ATOM     34 HH21 ARG A   3      12.409  11.218  22.232  0.00  0.00    +0.255 HD
ATOM     35 HH22 ARG A   3      12.702  12.975  21.965  0.00  0.00    +0.255 HD
ATOM     36  NH1 ARG A   3      10.535  13.407  20.752  0.00  0.00    -0.292 N 
ATOM     37 HH11 ARG A   3      11.143  14.244  20.860  0.00  0.00    +0.255 HD
ATOM     38 HH12 ARG A   3       9.623  13.487  20.258  0.00  0.00    +0.255 HD
ATOM     39  HE  ARG A   3       9.233  11.280  20.628  0.00  0.00    +0.259 HD
ENDBRANCH  30  31
ENDBRANCH  29  30
ENDBRANCH  28  29
ENDBRANCH   1  28
TORSDOF 13
REMARK  Name = ../refined-set-2016/4h3j/4h3j_pocket.pdb
REMARK  215 active torsions:
REMARK  status: ('A' for Active; 'I' for Inactive)
REMARK    1  A    between atoms: _1  and  _3
REMARK    2  A    between atoms: _3  and  _4
REMARK    3  A    between atoms: _3  and  _6
REMARK    4  A    between atoms: _6  and  _7
REMARK    5  A    between atoms: _7  and  _8
REMARK    6  A    between atoms: _8  and  _9
REMARK    7  A    between atoms: _9  and  _10
REMARK    8  A    between atoms: _14  and  _16
REMARK    9  A    between atoms: _16  and  _17
REMARK   10  A    between atoms: _16  and  _19
REMARK   11  A    between atoms: _19  and  _20
REMARK   12  A    between atoms: _22  and  _24
REMARK   13  A    between atoms: _24  and  _25
REMARK   14  A    between atoms: _27  and  _29
REMARK   15  A    between atoms: _29  and  _30
REMARK   16  A    between atoms: _29  and  _32
REMARK   17  A    between atoms: _32  and  _33
REMARK   18  A    between atoms: _33  and  _34
REMARK   19  A    between atoms: _39  and  _41
REMARK   20  A    between atoms: _41  and  _42
REMARK   21  A    between atoms: _44  and  _46
REMARK   22  A    between atoms: _46  and  _47
REMARK   23  A    between atoms: _46  and  _49
REMARK   24  A    between atoms: _49  and  _50
REMARK   25  A    between atoms: _55  and  _56
REMARK   26  A    between atoms: _58  and  _60
REMARK   27  A    between atoms: _60  and  _61
REMARK   28  A    between atoms: _60  and  _63
REMARK   29  A    between atoms: _63  and  _64
REMARK   30  A    between atoms: _67  and  _69
REMARK   31  A    between atoms: _69  and  _70
REMARK   32  A    between atoms: _69  and  _72
REMARK   33  A    between atoms: _75  and  _77
REMARK   34  A    between atoms: _77  and  _78
REMARK   35  A    between atoms: _77  and  _80
REMARK   36  A    between atoms: _80  and  _81
REMARK   37  A    between atoms: _84  and  _86
REMARK   38  A    between atoms: _86  and  _87
REMARK   39  A    between atoms: _86  and  _89
REMARK   40  A    between atoms: _89  and  _90
REMARK   41  A    between atoms: _93  and  _95
REMARK   42  A    between atoms: _95  and  _96
REMARK   43  A    between atoms: _98  and  _100
REMARK   44  A    between atoms: _100  and  _101
REMARK   45  A    between atoms: _100  and  _103
REMARK   46  A    between atoms: _103  and  _104
REMARK   47  A    between atoms: _106  and  _108
REMARK   48  A    between atoms: _108  and  _109
REMARK   49  A    between atoms: _108  and  _111
REMARK   50  A    between atoms: _111  and  _112
REMARK   51  A    between atoms: _114  and  _116
REMARK   52  A    between atoms: _116  and  _117
REMARK   53  A    between atoms: _116  and  _119
REMARK   54  A    between atoms: _119  and  _120
REMARK   55  A    between atoms: _125  and  _127
REMARK   56  A    between atoms: _127  and  _128
REMARK   57  A    between atoms: _127  and  _130
REMARK   58  A    between atoms: _130  and  _131
REMARK   59  A    between atoms: _137  and  _139
REMARK   60  A    between atoms: _139  and  _140
REMARK   61  A    between atoms: _143  and  _145
REMARK   62  A    between atoms: _145  and  _146
REMARK   63  A    between atoms: _145  and  _148
REMARK   64  A    between atoms: _151  and  _153
REMARK   65  A    between atoms: _153  and  _154
REMARK   66  A    between atoms: _153  and  _156
REMARK   67  A    between atoms: _156  and  _157
REMARK   68  A    between atoms: _162  and  _163
REMARK   69  A    between atoms: _165  and  _167
REMARK   70  A    between atoms: _167  and  _168
REMARK   71  A    between atoms: _167  and  _170
REMARK   72  A    between atoms: _174  and  _175
REMARK   73  A    between atoms: _180  and  _182
REMARK   74  A    between atoms: _182  and  _183
REMARK   75  A    between atoms: _182  and  _185
REMARK   76  A    between atoms: _185  and  _186
REMARK   77  A    between atoms: _191  and  _192
REMARK   78  A    between atoms: _194  and  _196
REMARK   79  A    between atoms: _196  and  _197
REMARK   80  A    between atoms: _196  and  _199
REMARK   81  A    between atoms: _199  and  _200
REMARK   82  A    between atoms: _203  and  _205
REMARK   83  A    between atoms: _205  and  _206
REMARK   84  A    between atoms: _205  and  _208
REMARK   85  A    between atoms: _208  and  _209
REMARK   86  A    between atoms: _209  and  _210
REMARK   87  A    between atoms: _215  and  _217
REMARK   88  A    between atoms: _217  and  _218
REMARK   89  A    between atoms: _220  and  _222
REMARK   90  A    between atoms: _222  and  _223
REMARK   91  A    between atoms: _222  and  _225
REMARK   92  A    between atoms: _225  and  _226
REMARK   93  A    between atoms: _226  and  _227
REMARK   94  A    between atoms: _227  and  _228
REMARK   95  A    between atoms: _228  and  _229
REMARK   96  A    between atoms: _233  and  _235
REMARK   97  A    between atoms: _235  and  _236
REMARK   98  A    between atoms: _235  and  _238
REMARK   99  A    between atoms: _238  and  _239
REMARK  100  A    between atoms: _249  and  _251
REMARK  101  A    between atoms: _251  and  _252
REMARK  102  A    between atoms: _255  and  _257
REMARK  103  A    between atoms: _257  and  _258
REMARK  104  A    between atoms: _257  and  _260
REMARK  105  A    between atoms: _260  and  _261
REMARK  106  A    between atoms: _261  and  _262
REMARK  107  A    between atoms: _262  and  _263
REMARK  108  A    between atoms: _263  and  _264
REMARK  109  A    between atoms: _268  and  _270
REMARK  110  A    between atoms: _270  and  _271
REMARK  111  A    between atoms: _270  and  _273
REMARK  112  A    between atoms: _273  and  _274
REMARK  113  A    between atoms: _280  and  _282
REMARK  114  A    between atoms: _282  and  _283
REMARK  115  A    between atoms: _282  and  _285
REMARK  116  A    between atoms: _285  and  _286
REMARK  117  A    between atoms: _292  and  _294
REMARK  118  A    between atoms: _294  and  _295
REMARK  119  A    between atoms: _294  and  _297
REMARK  120  A    between atoms: _297  and  _298
REMARK  121  A    between atoms: _301  and  _303
REMARK  122  A    between atoms: _303  and  _304
REMARK  123  A    between atoms: _303  and  _306
REMARK  124  A    between atoms: _306  and  _307
REMARK  125  A    between atoms: _309  and  _311
REMARK  126  A    between atoms: _311  and  _312
REMARK  127  A    between atoms: _311  and  _314
REMARK  128  A    between atoms: _314  and  _315
REMARK  129  A    between atoms: _325  and  _327
REMARK  130  A    between atoms: _327  and  _328
REMARK  131  A    between atoms: _330  and  _332
REMARK  132  A    between atoms: _332  and  _333
REMARK  133  A    between atoms: _332  and  _335
REMARK  134  A    between atoms: _335  and  _336
REMARK  135  A    between atoms: _339  and  _341
REMARK  136  A    between atoms: _341  and  _342
REMARK  137  A    between atoms: _341  and  _344
REMARK  138  A    between atoms: _344  and  _345
REMARK  139  A    between atoms: _348  and  _350
REMARK  140  A    between atoms: _350  and  _351
REMARK  141  A    between atoms: _353  and  _355
REMARK  142  A    between atoms: _355  and  _356
REMARK  143  A    between atoms: _355  and  _358
REMARK  144  A    between atoms: _358  and  _359
REMARK  145  A    between atoms: _362  and  _364
REMARK  146  A    between atoms: _364  and  _365
REMARK  147  A    between atoms: _364  and  _367
REMARK  148  A    between atoms: _367  and  _368
REMARK  149  A    between atoms: _371  and  _373
REMARK  150  A    between atoms: _373  and  _374
REMARK  151  A    between atoms: _377  and  _379
REMARK  152  A    between atoms: _379  and  _380
REMARK  153  A    between atoms: _379  and  _382
REMARK  154  A    between atoms: _382  and  _383
REMARK  155  A    between atoms: _383  and  _384
REMARK  156  A    between atoms: _384  and  _385
REMARK  157  A    between atoms: _395  and  _396
REMARK  158  A    between atoms: _401  and  _403
REMARK  159  A    between atoms: _403  and  _404
REMARK  160  A    between atoms: _403  and  _406
REMARK  161  A    between atoms: _406  and  _407
REMARK  162  A    between atoms: _410  and  _412
REMARK  163  A    between atoms: _412  and  _413
REMARK  164  A    between atoms: _412  and  _415
REMARK  165  A    between atoms: _415  and  _416
REMARK  166  A    between atoms: _421  and  _422
REMARK  167  A    between atoms: _424  and  _426
REMARK  168  A    between atoms: _426  and  _427
REMARK  169  A    between atoms: _426  and  _429
REMARK  170  A    between atoms: _429  and  _430
REMARK  171  A    between atoms: _433  and  _435
REMARK  172  A    between atoms: _435  and  _436
REMARK  173  A    between atoms: _435  and  _438
REMARK  174  A    between atoms: _441  and  _443
REMARK  175  A    between atoms: _443  and  _444
REMARK  176  A    between atoms: _443  and  _446
REMARK  177  A    between atoms: _446  and  _447
REMARK  178  A    between atoms: _450  and  _452
REMARK  179  A    between atoms: _452  and  _453
REMARK  180  A    between atoms: _452  and  _455
REMARK  181  A    between atoms: _455  and  _456
REMARK  182  A    between atoms: _458  and  _460
REMARK  183  A    between atoms: _460  and  _461
REMARK  184  A    between atoms: _463  and  _465
REMARK  185  A    between atoms: _465  and  _466
REMARK  186  A    between atoms: _465  and  _468
REMARK  187  A    between atoms: _468  and  _469
REMARK  188  A    between atoms: _472  and  _474
REMARK  189  A    between atoms: _474  and  _475
REMARK  190  A    between atoms: _474  and  _477
REMARK  191  A    between atoms: _477  and  _478
REMARK  192  A    between atoms: _481  and  _483
REMARK  193  A    between atoms: _483  and  _484
REMARK  194  A    between atoms: _483  and  _486
REMARK  195  A    between atoms: _486  and  _487
REMARK  196  A    between atoms: _492  and  _494
REMARK  197  A    between atoms: _494  and  _495
REMARK  198  A    between atoms: _494  and  _497
REMARK  199  A    between atoms: _497  and  _498
REMARK  200  A    between atoms: _498  and  _499
REMARK  201  A    between atoms: _499  and  _500
REMARK  202  A    between atoms: _509  and  _511
REMARK  203  A    between atoms: _511  and  _512
REMARK  204  A    between atoms: _511  and  _514
REMARK  205  A    between atoms: _514  and  _515
REMARK  206  A    between atoms: _518  and  _520
REMARK  207  A    between atoms: _520  and  _521
REMARK  208  A    between atoms: _520  and  _523
REMARK  209  A    between atoms: _526  and  _528
REMARK  210  A    between atoms: _528  and  _529
REMARK  211  A    between atoms: _531  and  _533
REMARK  212  A    between atoms: _533  and  _534
REMARK  213  A    between atoms: _537  and  _539
REMARK  214  A    between atoms: _539  and  _540
REMARK  215  A    between atoms: _539  and  _542
REMARK                            x       y       z     vdW  Elec       q    Type
REMARK                         _______ _______ _______ _____ _____    ______ ____
ROOT
ATOM      1  CA  LEU A   1      34.782   0.945  26.989  0.00  0.00    +0.133 C 
ENDROOT
BRANCH   1   2
ATOM      2  N   LEU A   1      34.355  -0.099  27.933  0.00  0.00    -0.239 NA
ATOM      3  H   LEU A   1      34.037   0.167  28.887  0.00  0.00    +0.142 HD
ENDBRANCH   1   2
BRANCH   1   4
ATOM      4  C   LEU A   1      36.233   1.246  27.357  0.00  0.00    +0.224 C 
ATOM      5  O   LEU A   1      36.546   1.506  28.519  0.00  0.00    -0.287 OA
ENDBRANCH   1   4
BRANCH   1   6
ATOM      6  CB  LEU A   1      33.914   2.210  27.129  0.00  0.00    +0.025 C 
BRANCH   6   7
ATOM      7  CG  LEU A   1      32.403   1.996  27.020  0.00  0.00    +0.002 C 
ATOM      8  CD2 LEU A   1      31.707   3.364  26.994  0.00  0.00    +0.000 C 
ATOM      9  CD1 LEU A   1      32.063   1.213  25.736  0.00  0.00    +0.000 C 
ENDBRANCH   6   7
ENDBRANCH   1   6
TORSDOF 4
REMARK  Name = ../refined-set-2016/4h3j/4h3j_pocket.pdb
REMARK  215 active torsions:
REMARK  status: ('A' for Active; 'I' for Inactive)
REMARK    1  A    between atoms: _1  and  _3
REMARK    2  A    between atoms: _3  and  _4
REMARK    3  A    between atoms: _3  and  _6
REMARK    4  A    between atoms: _6  and  _7
REMARK    5  A    between atoms: _7  and  _8
REMARK    6  A    between atoms: _8  and  _9
REMARK    7  A    between atoms: _9  and  _10
REMARK    8  A    between atoms: _14  and  _16
REMARK    9  A    between atoms: _16  and  _17
REMARK   10  A    between atoms: _16  and  _19
REMARK   11  A    between atoms: _19  and  _20
REMARK   12  A    between atoms: _22  and  _24
REMARK   13  A    between atoms: _24  and  _25
REMARK   14  A    between atoms: _27  and  _29
REMARK   15  A    between atoms: _29  and  _30
REMARK   16  A    between atoms: _29  and  _32
REMARK   17  A    between atoms: _32  and  _33
REMARK   18  A    between atoms: _33  and  _34
REMARK   19  A    between atoms: _39  and  _41
REMARK   20  A    between atoms: _41  and  _42
REMARK   21  A    between atoms: _44  and  _46
REMARK   22  A    between atoms: _46  and  _47
REMARK   23  A    between atoms: _46  and  _49
REMARK   24  A    between atoms: _49  and  _50
REMARK   25  A    between atoms: _55  and  _56
REMARK   26  A    between atoms: _58  and  _60
REMARK   27  A    between atoms: _60  and  _61
REMARK   28  A    between atoms: _60  and  _63
REMARK   29  A    between atoms: _63  and  _64
REMARK   30  A    between atoms: _67  and  _69
REMARK   31  A    between atoms: _69  and  _70
REMARK   32  A    between atoms: _69  and  _72
REMARK   33  A    between atoms: _75  and  _77
REMARK   34  A    between atoms: _77  and  _78
REMARK   35  A    between atoms: _77  and  _80
REMARK   36  A    between atoms: _80  and  _81
REMARK   37  A    between atoms: _84  and  _86
REMARK   38  A    between atoms: _86  and  _87
REMARK   39  A    between atoms: _86  and  _89
REMARK   40  A    between atoms: _89  and  _90
REMARK   41  A    between atoms: _93  and  _95
REMARK   42  A    between atoms: _95  and  _96
REMARK   43  A    between atoms: _98  and  _100
REMARK   44  A    between atoms: _100  and  _101
REMARK   45  A    between atoms: _100  and  _103
REMARK   46  A    between atoms: _103  and  _104
REMARK   47  A    between atoms: _106  and  _108
REMARK   48  A    between atoms: _108  and  _109
REMARK   49  A    between atoms: _108  and  _111
REMARK   50  A    between atoms: _111  and  _112
REMARK   51  A    between atoms: _114  and  _116
REMARK   52  A    between atoms: _116  and  _117
REMARK   53  A    between atoms: _116  and  _119
REMARK   54  A    between atoms: _119  and  _120
REMARK   55  A    between atoms: _125  and  _127
REMARK   56  A    between atoms: _127  and  _128
REMARK   57  A    between atoms: _127  and  _130
REMARK   58  A    between atoms: _130  and  _131
REMARK   59  A    between atoms: _137  and  _139
REMARK   60  A    between atoms: _139  and  _140
REMARK   61  A    between atoms: _143  and  _145
REMARK   62  A    between atoms: _145  and  _146
REMARK   63  A    between atoms: _145  and  _148
REMARK   64  A    between atoms: _151  and  _153
REMARK   65  A    between atoms: _153  and  _154
REMARK   66  A    between atoms: _153  and  _156
REMARK   67  A    between atoms: _156  and  _157
REMARK   68  A    between atoms: _162  and  _163
REMARK   69  A    between atoms: _165  and  _167
REMARK   70  A    between atoms: _167  and  _168
REMARK   71  A    between atoms: _167  and  _170
REMARK   72  A    between atoms: _174  and  _175
REMARK   73  A    between atoms: _180  and  _182
REMARK   74  A    between atoms: _182  and  _183
REMARK   75  A    between atoms: _182  and  _185
REMARK   76  A    between atoms: _185  and  _186
REMARK   77  A    between atoms: _191  and  _192
REMARK   78  A    between atoms: _194  and  _196
REMARK   79  A    between atoms: _196  and  _197
REMARK   80  A    between atoms: _196  and  _199
REMARK   81  A    between atoms: _199  and  _200
REMARK   82  A    between atoms: _203  and  _205
REMARK   83  A    between atoms: _205  and  _206
REMARK   84  A    between atoms: _205  and  _208
REMARK   85  A    between atoms: _208  and  _209
REMARK   86  A    between atoms: _209  and  _210
REMARK   87  A    between atoms: _215  and  _217
REMARK   88  A    between atoms: _217  and  _218
REMARK   89  A    between atoms: _220  and  _222
REMARK   90  A    between atoms: _222  and  _223
REMARK   91  A    between atoms: _222  and  _225
REMARK   92  A    between atoms: _225  and  _226
REMARK   93  A    between atoms: _226  and  _227
REMARK   94  A    between atoms: _227  and  _228
REMARK   95  A    between atoms: _228  and  _229
REMARK   96  A    between atoms: _233  and  _235
REMARK   97  A    between atoms: _235  and  _236
REMARK   98  A    between atoms: _235  and  _238
REMARK   99  A    between atoms: _238  and  _239
REMARK  100  A    between atoms: _249  and  _251
REMARK  101  A    between atoms: _251  and  _252
REMARK  102  A    between atoms: _255  and  _257
REMARK  103  A    between atoms: _257  and  _258
REMARK  104  A    between atoms: _257  and  _260
REMARK  105  A    between atoms: _260  and  _261
REMARK  106  A    between atoms: _261  and  _262
REMARK  107  A    between atoms: _262  and  _263
REMARK  108  A    between atoms: _263  and  _264
REMARK  109  A    between atoms: _268  and  _270
REMARK  110  A    between atoms: _270  and  _271
REMARK  111  A    between atoms: _270  and  _273
REMARK  112  A    between atoms: _273  and  _274
REMARK  113  A    between atoms: _280  and  _282
REMARK  114  A    between atoms: _282  and  _283
REMARK  115  A    between atoms: _282  and  _285
REMARK  116  A    between atoms: _285  and  _286
REMARK  117  A    between atoms: _292  and  _294
REMARK  118  A    between atoms: _294  and  _295
REMARK  119  A    between atoms: _294  and  _297
REMARK  120  A    between atoms: _297  and  _298
REMARK  121  A    between atoms: _301  and  _303
REMARK  122  A    between atoms: _303  and  _304
REMARK  123  A    between atoms: _303  and  _306
REMARK  124  A    between atoms: _306  and  _307
REMARK  125  A    between atoms: _309  and  _311
REMARK  126  A    between atoms: _311  and  _312
REMARK  127  A    between atoms: _311  and  _314
REMARK  128  A    between atoms: _314  and  _315
REMARK  129  A    between atoms: _325  and  _327
REMARK  130  A    between atoms: _327  and  _328
REMARK  131  A    between atoms: _330  and  _332
REMARK  132  A    between atoms: _332  and  _333
REMARK  133  A    between atoms: _332  and  _335
REMARK  134  A    between atoms: _335  and  _336
REMARK  135  A    between atoms: _339  and  _341
REMARK  136  A    between atoms: _341  and  _342
REMARK  137  A    between atoms: _341  and  _344
REMARK  138  A    between atoms: _344  and  _345
REMARK  139  A    between atoms: _348  and  _350
REMARK  140  A    between atoms: _350  and  _351
REMARK  141  A    between atoms: _353  and  _355
REMARK  142  A    between atoms: _355  and  _356
REMARK  143  A    between atoms: _355  and  _358
REMARK  144  A    between atoms: _358  and  _359
REMARK  145  A    between atoms: _362  and  _364
REMARK  146  A    between atoms: _364  and  _365
REMARK  147  A    between atoms: _364  and  _367
REMARK  148  A    between atoms: _367  and  _368
REMARK  149  A    between atoms: _371  and  _373
REMARK  150  A    between atoms: _373  and  _374
REMARK  151  A    between atoms: _377  and  _379
REMARK  152  A    between atoms: _379  and  _380
REMARK  153  A    between atoms: _379  and  _382
REMARK  154  A    between atoms: _382  and  _383
REMARK  155  A    between atoms: _383  and  _384
REMARK  156  A    between atoms: _384  and  _385
REMARK  157  A    between atoms: _395  and  _396
REMARK  158  A    between atoms: _401  and  _403
REMARK  159  A    between atoms: _403  and  _404
REMARK  160  A    between atoms: _403  and  _406
REMARK  161  A    between atoms: _406  and  _407
REMARK  162  A    between atoms: _410  and  _412
REMARK  163  A    between atoms: _412  and  _413
REMARK  164  A    between atoms: _412  and  _415
REMARK  165  A    between atoms: _415  and  _416
REMARK  166  A    between atoms: _421  and  _422
REMARK  167  A    between atoms: _424  and  _426
REMARK  168  A    between atoms: _426  and  _427
REMARK  169  A    between atoms: _426  and  _429
REMARK  170  A    between atoms: _429  and  _430
REMARK  171  A    between atoms: _433  and  _435
REMARK  172  A    between atoms: _435  and  _436
REMARK  173  A    between atoms: _435  and  _438
REMARK  174  A    between atoms: _441  and  _443
REMARK  175  A    between atoms: _443  and  _444
REMARK  176  A    between atoms: _443  and  _446
REMARK  177  A    between atoms: _446  and  _447
REMARK  178  A    between atoms: _450  and  _452
REMARK  179  A    between atoms: _452  and  _453
REMARK  180  A    between atoms: _452  and  _455
REMARK  181  A    between atoms: _455  and  _456
REMARK  182  A    between atoms: _458  and  _460
REMARK  183  A    between atoms: _460  and  _461
REMARK  184  A    between atoms: _463  and  _465
REMARK  185  A    between atoms: _465  and  _466
REMARK  186  A    between atoms: _465  and  _468
REMARK  187  A    between atoms: _468  and  _469
REMARK  188  A    between atoms: _472  and  _474
REMARK  189  A    between atoms: _474  and  _475
REMARK  190  A    between atoms: _474  and  _477
REMARK  191  A    between atoms: _477  and  _478
REMARK  192  A    between atoms: _481  and  _483
REMARK  193  A    between atoms: _483  and  _484
REMARK  194  A    between atoms: _483  and  _486
REMARK  195  A    between atoms: _486  and  _487
REMARK  196  A    between atoms: _492  and  _494
REMARK  197  A    between atoms: _494  and  _495
REMARK  198  A    between atoms: _494  and  _497
REMARK  199  A    between atoms: _497  and  _498
REMARK  200  A    between atoms: _498  and  _499
REMARK  201  A    between atoms: _499  and  _500
REMARK  202  A    between atoms: _509  and  _511
REMARK  203  A    between atoms: _511  and  _512
REMARK  204  A    between atoms: _511  and  _514
REMARK  205  A    between atoms: _514  and  _515
REMARK  206  A    between atoms: _518  and  _520
REMARK  207  A    between atoms: _520  and  _521
REMARK  208  A    between atoms: _520  and  _523
REMARK  209  A    between atoms: _526  and  _528
REMARK  210  A    between atoms: _528  and  _529
REMARK  211  A    between atoms: _531  and  _533
REMARK  212  A    between atoms: _533  and  _534
REMARK  213  A    between atoms: _537  and  _539
REMARK  214  A    between atoms: _539  and  _540
REMARK  215  A    between atoms: _539  and  _542
REMARK                            x       y       z     vdW  Elec       q    Type
REMARK                         _______ _______ _______ _____ _____    ______ ____
ROOT
ATOM      1  CG  TYR A   1      16.973   7.697  30.793  0.00  0.00    -0.020 A 
ATOM      2  CD2 TYR A   1      15.853   8.464  31.118  0.00  0.00    -0.001 A 
ATOM      3  CE2 TYR A   1      15.447   9.497  30.308  0.00  0.00    +0.036 A 
ATOM      4  CZ  TYR A   1      16.152   9.781  29.165  0.00  0.00    +0.134 A 
ATOM      5  CE1 TYR A   1      17.269   9.042  28.818  0.00  0.00    +0.036 A 
ATOM      6  CD1 TYR A   1      17.673   8.006  29.631  0.00  0.00    -0.001 A 
ENDROOT
BRANCH   4   7
ATOM      7  OH  TYR A   1      15.735  10.814  28.362  0.00  0.00    -0.506 OA
ATOM      8  HH  TYR A   1      14.814  10.634  28.047  0.00  0.00    +0.292 HD
ENDBRANCH   4   7
BRANCH   1   9
ATOM      9  CB  TYR A   1      17.390   6.554  31.653  0.00  0.00    +0.051 C 
BRANCH   9  10
ATOM     10  CA  TYR A   1      16.875   5.191  31.170  0.00  0.00    +0.137 C 
BRANCH  10  11
ATOM     11  N   TYR A   1      15.439   5.039  31.450  0.00  0.00    -0.239 NA
ATOM     12  H   TYR A   1      14.974   5.666  32.138  0.00  0.00    +0.142 HD
ENDBRANCH  10  11
BRANCH  10  13
ATOM     13  C   TYR A   1      17.416   4.148  32.146  0.00  0.00    +0.224 C 
ATOM     14  O   TYR A   1      16.641   3.529  32.880  0.00  0.00    -0.287 OA
ENDBRANCH  10  13
ENDBRANCH   9  10
ENDBRANCH   1   9
TORSDOF 5
REMARK  Name = ../refined-set-2016/4h3j/4h3j_pocket.pdb
REMARK  215 active torsions:
REMARK  status: ('A' for Active; 'I' for Inactive)
REMARK    1  A    between atoms: _1  and  _3
REMARK    2  A    between atoms: _3  and  _4
REMARK    3  A    between atoms: _3  and  _6
REMARK    4  A    between atoms: _6  and  _7
REMARK    5  A    between atoms: _7  and  _8
REMARK    6  A    between atoms: _8  and  _9
REMARK    7  A    between atoms: _9  and  _10
REMARK    8  A    between atoms: _14  and  _16
REMARK    9  A    between atoms: _16  and  _17
REMARK   10  A    between atoms: _16  and  _19
REMARK   11  A    between atoms: _19  and  _20
REMARK   12  A    between atoms: _22  and  _24
REMARK   13  A    between atoms: _24  and  _25
REMARK   14  A    between atoms: _27  and  _29
REMARK   15  A    between atoms: _29  and  _30
REMARK   16  A    between atoms: _29  and  _32
REMARK   17  A    between atoms: _32  and  _33
REMARK   18  A    between atoms: _33  and  _34
REMARK   19  A    between atoms: _39  and  _41
REMARK   20  A    between atoms: _41  and  _42
REMARK   21  A    between atoms: _44  and  _46
REMARK   22  A    between atoms: _46  and  _47
REMARK   23  A    between atoms: _46  and  _49
REMARK   24  A    between atoms: _49  and  _50
REMARK   25  A    between atoms: _55  and  _56
REMARK   26  A    between atoms: _58  and  _60
REMARK   27  A    between atoms: _60  and  _61
REMARK   28  A    between atoms: _60  and  _63
REMARK   29  A    between atoms: _63  and  _64
REMARK   30  A    between atoms: _67  and  _69
REMARK   31  A    between atoms: _69  and  _70
REMARK   32  A    between atoms: _69  and  _72
REMARK   33  A    between atoms: _75  and  _77
REMARK   34  A    between atoms: _77  and  _78
REMARK   35  A    between atoms: _77  and  _80
REMARK   36  A    between atoms: _80  and  _81
REMARK   37  A    between atoms: _84  and  _86
REMARK   38  A    between atoms: _86  and  _87
REMARK   39  A    between atoms: _86  and  _89
REMARK   40  A    between atoms: _89  and  _90
REMARK   41  A    between atoms: _93  and  _95
REMARK   42  A    between atoms: _95  and  _96
REMARK   43  A    between atoms: _98  and  _100
REMARK   44  A    between atoms: _100  and  _101
REMARK   45  A    between atoms: _100  and  _103
REMARK   46  A    between atoms: _103  and  _104
REMARK   47  A    between atoms: _106  and  _108
REMARK   48  A    between atoms: _108  and  _109
REMARK   49  A    between atoms: _108  and  _111
REMARK   50  A    between atoms: _111  and  _112
REMARK   51  A    between atoms: _114  and  _116
REMARK   52  A    between atoms: _116  and  _117
REMARK   53  A    between atoms: _116  and  _119
REMARK   54  A    between atoms: _119  and  _120
REMARK   55  A    between atoms: _125  and  _127
REMARK   56  A    between atoms: _127  and  _128
REMARK   57  A    between atoms: _127  and  _130
REMARK   58  A    between atoms: _130  and  _131
REMARK   59  A    between atoms: _137  and  _139
REMARK   60  A    between atoms: _139  and  _140
REMARK   61  A    between atoms: _143  and  _145
REMARK   62  A    between atoms: _145  and  _146
REMARK   63  A    between atoms: _145  and  _148
REMARK   64  A    between atoms: _151  and  _153
REMARK   65  A    between atoms: _153  and  _154
REMARK   66  A    between atoms: _153  and  _156
REMARK   67  A    between atoms: _156  and  _157
REMARK   68  A    between atoms: _162  and  _163
REMARK   69  A    between atoms: _165  and  _167
REMARK   70  A    between atoms: _167  and  _168
REMARK   71  A    between atoms: _167  and  _170
REMARK   72  A    between atoms: _174  and  _175
REMARK   73  A    between atoms: _180  and  _182
REMARK   74  A    between atoms: _182  and  _183
REMARK   75  A    between atoms: _182  and  _185
REMARK   76  A    between atoms: _185  and  _186
REMARK   77  A    between atoms: _191  and  _192
REMARK   78  A    between atoms: _194  and  _196
REMARK   79  A    between atoms: _196  and  _197
REMARK   80  A    between atoms: _196  and  _199
REMARK   81  A    between atoms: _199  and  _200
REMARK   82  A    between atoms: _203  and  _205
REMARK   83  A    between atoms: _205  and  _206
REMARK   84  A    between atoms: _205  and  _208
REMARK   85  A    between atoms: _208  and  _209
REMARK   86  A    between atoms: _209  and  _210
REMARK   87  A    between atoms: _215  and  _217
REMARK   88  A    between atoms: _217  and  _218
REMARK   89  A    between atoms: _220  and  _222
REMARK   90  A    between atoms: _222  and  _223
REMARK   91  A    between atoms: _222  and  _225
REMARK   92  A    between atoms: _225  and  _226
REMARK   93  A    between atoms: _226  and  _227
REMARK   94  A    between atoms: _227  and  _228
REMARK   95  A    between atoms: _228  and  _229
REMARK   96  A    between atoms: _233  and  _235
REMARK   97  A    between atoms: _235  and  _236
REMARK   98  A    between atoms: _235  and  _238
REMARK   99  A    between atoms: _238  and  _239
REMARK  100  A    between atoms: _249  and  _251
REMARK  101  A    between atoms: _251  and  _252
REMARK  102  A    between atoms: _255  and  _257
REMARK  103  A    between atoms: _257  and  _258
REMARK  104  A    between atoms: _257  and  _260
REMARK  105  A    between atoms: _260  and  _261
REMARK  106  A    between atoms: _261  and  _262
REMARK  107  A    between atoms: _262  and  _263
REMARK  108  A    between atoms: _263  and  _264
REMARK  109  A    between atoms: _268  and  _270
REMARK  110  A    between atoms: _270  and  _271
REMARK  111  A    between atoms: _270  and  _273
REMARK  112  A    between atoms: _273  and  _274
REMARK  113  A    between atoms: _280  and  _282
REMARK  114  A    between atoms: _282  and  _283
REMARK  115  A    between atoms: _282  and  _285
REMARK  116  A    between atoms: _285  and  _286
REMARK  117  A    between atoms: _292  and  _294
REMARK  118  A    between atoms: _294  and  _295
REMARK  119  A    between atoms: _294  and  _297
REMARK  120  A    between atoms: _297  and  _298
REMARK  121  A    between atoms: _301  and  _303
REMARK  122  A    between atoms: _303  and  _304
REMARK  123  A    between atoms: _303  and  _306
REMARK  124  A    between atoms: _306  and  _307
REMARK  125  A    between atoms: _309  and  _311
REMARK  126  A    between atoms: _311  and  _312
REMARK  127  A    between atoms: _311  and  _314
REMARK  128  A    between atoms: _314  and  _315
REMARK  129  A    between atoms: _325  and  _327
REMARK  130  A    between atoms: _327  and  _328
REMARK  131  A    between atoms: _330  and  _332
REMARK  132  A    between atoms: _332  and  _333
REMARK  133  A    between atoms: _332  and  _335
REMARK  134  A    between atoms: _335  and  _336
REMARK  135  A    between atoms: _339  and  _341
REMARK  136  A    between atoms: _341  and  _342
REMARK  137  A    between atoms: _341  and  _344
REMARK  138  A    between atoms: _344  and  _345
REMARK  139  A    between atoms: _348  and  _350
REMARK  140  A    between atoms: _350  and  _351
REMARK  141  A    between atoms: _353  and  _355
REMARK  142  A    between atoms: _355  and  _356
REMARK  143  A    between atoms: _355  and  _358
REMARK  144  A    between atoms: _358  and  _359
REMARK  145  A    between atoms: _362  and  _364
REMARK  146  A    between atoms: _364  and  _365
REMARK  147  A    between atoms: _364  and  _367
REMARK  148  A    between atoms: _367  and  _368
REMARK  149  A    between atoms: _371  and  _373
REMARK  150  A    between atoms: _373  and  _374
REMARK  151  A    between atoms: _377  and  _379
REMARK  152  A    between atoms: _379  and  _380
REMARK  153  A    between atoms: _379  and  _382
REMARK  154  A    between atoms: _382  and  _383
REMARK  155  A    between atoms: _383  and  _384
REMARK  156  A    between atoms: _384  and  _385
REMARK  157  A    between atoms: _395  and  _396
REMARK  158  A    between atoms: _401  and  _403
REMARK  159  A    between atoms: _403  and  _404
REMARK  160  A    between atoms: _403  and  _406
REMARK  161  A    between atoms: _406  and  _407
REMARK  162  A    between atoms: _410  and  _412
REMARK  163  A    between atoms: _412  and  _413
REMARK  164  A    between atoms: _412  and  _415
REMARK  165  A    between atoms: _415  and  _416
REMARK  166  A    between atoms: _421  and  _422
REMARK  167  A    between atoms: _424  and  _426
REMARK  168  A    between atoms: _426  and  _427
REMARK  169  A    between atoms: _426  and  _429
REMARK  170  A    between atoms: _429  and  _430
REMARK  171  A    between atoms: _433  and  _435
REMARK  172  A    between atoms: _435  and  _436
REMARK  173  A    between atoms: _435  and  _438
REMARK  174  A    between atoms: _441  and  _443
REMARK  175  A    between atoms: _443  and  _444
REMARK  176  A    between atoms: _443  and  _446
REMARK  177  A    between atoms: _446  and  _447
REMARK  178  A    between atoms: _450  and  _452
REMARK  179  A    between atoms: _452  and  _453
REMARK  180  A    between atoms: _452  and  _455
REMARK  181  A    between atoms: _455  and  _456
REMARK  182  A    between atoms: _458  and  _460
REMARK  183  A    between atoms: _460  and  _461
REMARK  184  A    between atoms: _463  and  _465
REMARK  185  A    between atoms: _465  and  _466
REMARK  186  A    between atoms: _465  and  _468
REMARK  187  A    between atoms: _468  and  _469
REMARK  188  A    between atoms: _472  and  _474
REMARK  189  A    between atoms: _474  and  _475
REMARK  190  A    between atoms: _474  and  _477
REMARK  191  A    between atoms: _477  and  _478
REMARK  192  A    between atoms: _481  and  _483
REMARK  193  A    between atoms: _483  and  _484
REMARK  194  A    between atoms: _483  and  _486
REMARK  195  A    between atoms: _486  and  _487
REMARK  196  A    between atoms: _492  and  _494
REMARK  197  A    between atoms: _494  and  _495
REMARK  198  A    between atoms: _494  and  _497
REMARK  199  A    between atoms: _497  and  _498
REMARK  200  A    between atoms: _498  and  _499
REMARK  201  A    between atoms: _499  and  _500
REMARK  202  A    between atoms: _509  and  _511
REMARK  203  A    between atoms: _511  and  _512
REMARK  204  A    between atoms: _511  and  _514
REMARK  205  A    between atoms: _514  and  _515
REMARK  206  A    between atoms: _518  and  _520
REMARK  207  A    between atoms: _520  and  _521
REMARK  208  A    between atoms: _520  and  _523
REMARK  209  A    between atoms: _526  and  _528
REMARK  210  A    between atoms: _528  and  _529
REMARK  211  A    between atoms: _531  and  _533
REMARK  212  A    between atoms: _533  and  _534
REMARK  213  A    between atoms: _537  and  _539
REMARK  214  A    between atoms: _539  and  _540
REMARK  215  A    between atoms: _539  and  _542
REMARK                            x       y       z     vdW  Elec       q    Type
REMARK                         _______ _______ _______ _____ _____    ______ ____
ROOT
ATOM      1  C   SER A   4      27.516   6.225  25.791  0.00  0.00    +0.243 C 
ATOM      2  N   GLY A   5      26.387   6.908  25.566  0.00  0.00    -0.295 N 
ATOM      3  H   GLY A   5      25.571   6.749  26.191  0.00  0.00    +0.150 HD
ATOM      4  O   SER A   4      28.526   6.348  25.104  0.00  0.00    -0.273 OA
ENDROOT
BRANCH   2   5
ATOM      5  CA  GLY A   5      26.263   7.864  24.479  0.00  0.00    +0.176 C 
BRANCH   5   6
ATOM      6  C   GLY A   5      26.572   9.301  24.863  0.00  0.00    +0.243 C 
ATOM      7  N   THR A   6      27.078   9.495  26.080  0.00  0.00    -0.295 N 
ATOM      8  H   THR A   6      27.180   8.675  26.712  0.00  0.00    +0.150 HD
ATOM      9  O   GLY A   5      26.331  10.210  24.085  0.00  0.00    -0.273 OA
BRANCH   7  10
ATOM     10  CA  THR A   6      27.496  10.810  26.567  0.00  0.00    +0.176 C 
BRANCH  10  11
ATOM     11  C   THR A   6      28.996  10.696  26.849  0.00  0.00    +0.243 C 
ATOM     12  O   THR A   6      29.442   9.743  27.474  0.00  0.00    -0.273 OA
ATOM     13  N   THR A   7      29.774  11.662  26.377  0.00  0.00    -0.295 N 
ATOM     14  H   THR A   7      29.345  12.452  25.854  0.00  0.00    +0.150 HD
BRANCH  13  15
ATOM     15  CA  THR A   7      31.221  11.638  26.577  0.00  0.00    +0.176 C 
BRANCH  15  16
ATOM     16  C   THR A   7      31.643  11.903  28.029  0.00  0.00    +0.243 C 
ATOM     17  O   THR A   7      32.447  11.180  28.620  0.00  0.00    -0.273 OA
ATOM     18  N   ASN A   8      31.089  12.967  28.594  0.00  0.00    -0.298 N 
ATOM     19  H   ASN A   8      30.359  13.492  28.072  0.00  0.00    +0.150 HD
BRANCH  18  20
ATOM     20  CA  ASN A   8      31.472  13.423  29.923  0.00  0.00    +0.146 C 
BRANCH  20  21
ATOM     21  C   ASN A   8      30.754  12.820  31.118  0.00  0.00    +0.227 C 
ATOM     22  O   ASN A   8      29.782  12.073  30.971  0.00  0.00    -0.286 OA
ENDBRANCH  20  21
BRANCH  20  23
ATOM     23  CB  ASN A   8      31.219  14.938  30.008  0.00  0.00    +0.112 C 
BRANCH  23  24
ATOM     24  CG  ASN A   8      32.184  15.771  29.168  0.00  0.00    +0.222 C 
ATOM     25  ND2 ASN A   8      31.967  17.086  29.181  0.00  0.00    -0.329 N 
ATOM     26 HD21 ASN A   8      31.169  17.476  29.721  0.00  0.00    +0.145 HD
ATOM     27 HD22 ASN A   8      32.596  17.722  28.651  0.00  0.00    +0.145 HD
ATOM     28  OD1 ASN A   8      33.113  15.266  28.545  0.00  0.00    -0.275 OA
ENDBRANCH  23  24
ENDBRANCH  20  23
ENDBRANCH  18  20
ENDBRANCH  15  16
BRANCH  15  29
ATOM     29  CB  THR A   7      31.910  12.724  25.711  0.00  0.00    +0.137 C 
ATOM     30  CG2 THR A   7      33.423  12.786  26.017  0.00  0.00    +0.034 C 
BRANCH  29  31
ATOM     31  OG1 THR A   7      31.710  12.432  24.313  0.00  0.00    -0.382 OA
ATOM     32  HG1 THR A   7      32.101  11.547  24.103  0.00  0.00    +0.210 HD
ENDBRANCH  29  31
ENDBRANCH  15  29
ENDBRANCH  13  15
ENDBRANCH  10  11
BRANCH  10  33
ATOM     33  CB  THR A   6      26.738  11.202  27.864  0.00  0.00    +0.137 C 
ATOM     34  CG2 THR A   6      27.412  12.381  28.567  0.00  0.00    +0.034 C 
BRANCH  33  35
ATOM     35  OG1 THR A   6      25.404  11.594  27.515  0.00  0.00    -0.382 OA
ATOM     36  HG1 THR A   6      24.944  10.838  27.071  0.00  0.00    +0.210 HD
ENDBRANCH  33  35
ENDBRANCH  10  33
ENDBRANCH   7  10
ENDBRANCH   5   6
ENDBRANCH   2   5
BRANCH   1  37
ATOM     37  CA  SER A   4      27.515   5.246  26.972  0.00  0.00    +0.178 C 
BRANCH  37  40
ATOM     38  C   ASP A   3      26.191   6.521  28.570  0.00  0.00    +0.241 C 
ATOM     39  O   ASP A   3      26.988   7.465  28.543  0.00  0.00    -0.273 OA
ATOM     40  N   SER A   4      26.356   5.410  27.847  0.00  0.00    -0.295 N 
ATOM     41  H   SER A   4      25.649   4.650  27.908  0.00  0.00    +0.150 HD
BRANCH  38  42
ATOM     42  CA  ASP A   3      24.930   6.587  29.412  0.00  0.00    +0.160 C 
BRANCH  42  45
ATOM     43  C   VAL A   2      24.262   5.550  31.523  0.00  0.00    +0.241 C 
ATOM     44  O   VAL A   2      23.383   4.888  30.968  0.00  0.00    -0.273 OA
ATOM     45  N   ASP A   3      25.107   6.333  30.849  0.00  0.00    -0.297 N 
ATOM     46  H   ASP A   3      25.906   6.772  31.350  0.00  0.00    +0.150 HD
BRANCH  43  47
ATOM     47  CA  VAL A   2      24.443   5.476  33.039  0.00  0.00    +0.148 C 
BRANCH  47  50
ATOM     48  C   ILE A   1      23.094   7.216  34.126  0.00  0.00    +0.238 C 
ATOM     49  O   ILE A   1      24.061   7.965  34.269  0.00  0.00    -0.274 OA
ATOM     50  N   VAL A   2      23.180   6.000  33.586  0.00  0.00    -0.297 N 
ATOM     51  H   VAL A   2      22.329   5.403  33.550  0.00  0.00    +0.150 HD
BRANCH  48  52
ATOM     52  CA  ILE A   1      21.712   7.643  34.591  0.00  0.00    +0.145 C 
BRANCH  52  53
ATOM     53  CB  ILE A   1      20.873   7.990  33.335  0.00  0.00    +0.025 C 
ATOM     54  CG2 ILE A   1      19.466   8.416  33.762  0.00  0.00    +0.002 C 
BRANCH  53  55
ATOM     55  CG1 ILE A   1      21.571   9.078  32.512  0.00  0.00    +0.002 C 
ATOM     56  CD1 ILE A   1      20.877   9.380  31.161  0.00  0.00    +0.000 C 
ENDBRANCH  53  55
ENDBRANCH  52  53
BRANCH  52  57
ATOM     57  N   ILE A   1      21.750   8.761  35.536  0.00  0.00    -0.238 NA
ATOM     58  H   ILE A   1      22.333   9.596  35.326  0.00  0.00    +0.142 HD
ENDBRANCH  52  57
ENDBRANCH  48  52
ENDBRANCH  47  50
BRANCH  47  59
ATOM     59  CB  VAL A   2      24.692   4.025  33.477  0.00  0.00    +0.027 C 
ATOM     60  CG2 VAL A   2      24.681   3.933  35.018  0.00  0.00    +0.002 C 
ATOM     61  CG1 VAL A   2      26.038   3.552  32.946  0.00  0.00    +0.002 C 
ENDBRANCH  47  59
ENDBRANCH  43  47
ENDBRANCH  42  45
BRANCH  42  62
ATOM     62  CB  ASP A   3      24.279   7.986  29.255  0.00  0.00    +0.143 C 
BRANCH  62  63
ATOM     63  CG  ASP A   3      23.975   8.356  27.804  0.00  0.00    +0.367 C 
ATOM     64  OD2 ASP A   3      23.644   9.529  27.548  0.00  0.00    -0.246 OA
ATOM     65  OD1 ASP A   3      24.052   7.478  26.942  0.00  0.00    -0.246 OA
ENDBRANCH  62  63
ENDBRANCH  42  62
ENDBRANCH  38  42
ENDBRANCH  37  40
BRANCH  37  66
ATOM     66  CB  SER A   4      27.580   3.803  26.445  0.00  0.00    +0.166 C 
BRANCH  66  67
ATOM     67  OG  SER A   4      26.415   3.511  25.662  0.00  0.00    -0.380 OA
ATOM     68  H   SER A   4      26.369   4.136  24.895  0.00  0.00    +0.211 HD
ENDBRANCH  66  67
ENDBRANCH  37  66
ENDBRANCH   1  37
TORSDOF 29
REMARK  Name = ../refined-set-2016/4h3j/4h3j_pocket.pdb
REMARK  215 active torsions:
REMARK  status: ('A' for Active; 'I' for Inactive)
REMARK    1  A    between atoms: _1  and  _3
REMARK    2  A    between atoms: _3  and  _4
REMARK    3  A    between atoms: _3  and  _6
REMARK    4  A    between atoms: _6  and  _7
REMARK    5  A    between atoms: _7  and  _8
REMARK    6  A    between atoms: _8  and  _9
REMARK    7  A    between atoms: _9  and  _10
REMARK    8  A    between atoms: _14  and  _16
REMARK    9  A    between atoms: _16  and  _17
REMARK   10  A    between atoms: _16  and  _19
REMARK   11  A    between atoms: _19  and  _20
REMARK   12  A    between atoms: _22  and  _24
REMARK   13  A    between atoms: _24  and  _25
REMARK   14  A    between atoms: _27  and  _29
REMARK   15  A    between atoms: _29  and  _30
REMARK   16  A    between atoms: _29  and  _32
REMARK   17  A    between atoms: _32  and  _33
REMARK   18  A    between atoms: _33  and  _34
REMARK   19  A    between atoms: _39  and  _41
REMARK   20  A    between atoms: _41  and  _42
REMARK   21  A    between atoms: _44  and  _46
REMARK   22  A    between atoms: _46  and  _47
REMARK   23  A    between atoms: _46  and  _49
REMARK   24  A    between atoms: _49  and  _50
REMARK   25  A    between atoms: _55  and  _56
REMARK   26  A    between atoms: _58  and  _60
REMARK   27  A    between atoms: _60  and  _61
REMARK   28  A    between atoms: _60  and  _63
REMARK   29  A    between atoms: _63  and  _64
REMARK   30  A    between atoms: _67  and  _69
REMARK   31  A    between atoms: _69  and  _70
REMARK   32  A    between atoms: _69  and  _72
REMARK   33  A    between atoms: _75  and  _77
REMARK   34  A    between atoms: _77  and  _78
REMARK   35  A    between atoms: _77  and  _80
REMARK   36  A    between atoms: _80  and  _81
REMARK   37  A    between atoms: _84  and  _86
REMARK   38  A    between atoms: _86  and  _87
REMARK   39  A    between atoms: _86  and  _89
REMARK   40  A    between atoms: _89  and  _90
REMARK   41  A    between atoms: _93  and  _95
REMARK   42  A    between atoms: _95  and  _96
REMARK   43  A    between atoms: _98  and  _100
REMARK   44  A    between atoms: _100  and  _101
REMARK   45  A    between atoms: _100  and  _103
REMARK   46  A    between atoms: _103  and  _104
REMARK   47  A    between atoms: _106  and  _108
REMARK   48  A    between atoms: _108  and  _109
REMARK   49  A    between atoms: _108  and  _111
REMARK   50  A    between atoms: _111  and  _112
REMARK   51  A    between atoms: _114  and  _116
REMARK   52  A    between atoms: _116  and  _117
REMARK   53  A    between atoms: _116  and  _119
REMARK   54  A    between atoms: _119  and  _120
REMARK   55  A    between atoms: _125  and  _127
REMARK   56  A    between atoms: _127  and  _128
REMARK   57  A    between atoms: _127  and  _130
REMARK   58  A    between atoms: _130  and  _131
REMARK   59  A    between atoms: _137  and  _139
REMARK   60  A    between atoms: _139  and  _140
REMARK   61  A    between atoms: _143  and  _145
REMARK   62  A    between atoms: _145  and  _146
REMARK   63  A    between atoms: _145  and  _148
REMARK   64  A    between atoms: _151  and  _153
REMARK   65  A    between atoms: _153  and  _154
REMARK   66  A    between atoms: _153  and  _156
REMARK   67  A    between atoms: _156  and  _157
REMARK   68  A    between atoms: _162  and  _163
REMARK   69  A    between atoms: _165  and  _167
REMARK   70  A    between atoms: _167  and  _168
REMARK   71  A    between atoms: _167  and  _170
REMARK   72  A    between atoms: _174  and  _175
REMARK   73  A    between atoms: _180  and  _182
REMARK   74  A    between atoms: _182  and  _183
REMARK   75  A    between atoms: _182  and  _185
REMARK   76  A    between atoms: _185  and  _186
REMARK   77  A    between atoms: _191  and  _192
REMARK   78  A    between atoms: _194  and  _196
REMARK   79  A    between atoms: _196  and  _197
REMARK   80  A    between atoms: _196  and  _199
REMARK   81  A    between atoms: _199  and  _200
REMARK   82  A    between atoms: _203  and  _205
REMARK   83  A    between atoms: _205  and  _206
REMARK   84  A    between atoms: _205  and  _208
REMARK   85  A    between atoms: _208  and  _209
REMARK   86  A    between atoms: _209  and  _210
REMARK   87  A    between atoms: _215  and  _217
REMARK   88  A    between atoms: _217  and  _218
REMARK   89  A    between atoms: _220  and  _222
REMARK   90  A    between atoms: _222  and  _223
REMARK   91  A    between atoms: _222  and  _225
REMARK   92  A    between atoms: _225  and  _226
REMARK   93  A    between atoms: _226  and  _227
REMARK   94  A    between atoms: _227  and  _228
REMARK   95  A    between atoms: _228  and  _229
REMARK   96  A    between atoms: _233  and  _235
REMARK   97  A    between atoms: _235  and  _236
REMARK   98  A    between atoms: _235  and  _238
REMARK   99  A    between atoms: _238  and  _239
REMARK  100  A    between atoms: _249  and  _251
REMARK  101  A    between atoms: _251  and  _252
REMARK  102  A    between atoms: _255  and  _257
REMARK  103  A    between atoms: _257  and  _258
REMARK  104  A    between atoms: _257  and  _260
REMARK  105  A    between atoms: _260  and  _261
REMARK  106  A    between atoms: _261  and  _262
REMARK  107  A    between atoms: _262  and  _263
REMARK  108  A    between atoms: _263  and  _264
REMARK  109  A    between atoms: _268  and  _270
REMARK  110  A    between atoms: _270  and  _271
REMARK  111  A    between atoms: _270  and  _273
REMARK  112  A    between atoms: _273  and  _274
REMARK  113  A    between atoms: _280  and  _282
REMARK  114  A    between atoms: _282  and  _283
REMARK  115  A    between atoms: _282  and  _285
REMARK  116  A    between atoms: _285  and  _286
REMARK  117  A    between atoms: _292  and  _294
REMARK  118  A    between atoms: _294  and  _295
REMARK  119  A    between atoms: _294  and  _297
REMARK  120  A    between atoms: _297  and  _298
REMARK  121  A    between atoms: _301  and  _303
REMARK  122  A    between atoms: _303  and  _304
REMARK  123  A    between atoms: _303  and  _306
REMARK  124  A    between atoms: _306  and  _307
REMARK  125  A    between atoms: _309  and  _311
REMARK  126  A    between atoms: _311  and  _312
REMARK  127  A    between atoms: _311  and  _314
REMARK  128  A    between atoms: _314  and  _315
REMARK  129  A    between atoms: _325  and  _327
REMARK  130  A    between atoms: _327  and  _328
REMARK  131  A    between atoms: _330  and  _332
REMARK  132  A    between atoms: _332  and  _333
REMARK  133  A    between atoms: _332  and  _335
REMARK  134  A    between atoms: _335  and  _336
REMARK  135  A    between atoms: _339  and  _341
REMARK  136  A    between atoms: _341  and  _342
REMARK  137  A    between atoms: _341  and  _344
REMARK  138  A    between atoms: _344  and  _345
REMARK  139  A    between atoms: _348  and  _350
REMARK  140  A    between atoms: _350  and  _351
REMARK  141  A    between atoms: _353  and  _355
REMARK  142  A    between atoms: _355  and  _356
REMARK  143  A    between atoms: _355  and  _358
REMARK  144  A    between atoms: _358  and  _359
REMARK  145  A    between atoms: _362  and  _364
REMARK  146  A    between atoms: _364  and  _365
REMARK  147  A    between atoms: _364  and  _367
REMARK  148  A    between atoms: _367  and  _368
REMARK  149  A    between atoms: _371  and  _373
REMARK  150  A    between atoms: _373  and  _374
REMARK  151  A    between atoms: _377  and  _379
REMARK  152  A    between atoms: _379  and  _380
REMARK  153  A    between atoms: _379  and  _382
REMARK  154  A    between atoms: _382  and  _383
REMARK  155  A    between atoms: _383  and  _384
REMARK  156  A    between atoms: _384  and  _385
REMARK  157  A    between atoms: _395  and  _396
REMARK  158  A    between atoms: _401  and  _403
REMARK  159  A    between atoms: _403  and  _404
REMARK  160  A    between atoms: _403  and  _406
REMARK  161  A    between atoms: _406  and  _407
REMARK  162  A    between atoms: _410  and  _412
REMARK  163  A    between atoms: _412  and  _413
REMARK  164  A    between atoms: _412  and  _415
REMARK  165  A    between atoms: _415  and  _416
REMARK  166  A    between atoms: _421  and  _422
REMARK  167  A    between atoms: _424  and  _426
REMARK  168  A    between atoms: _426  and  _427
REMARK  169  A    between atoms: _426  and  _429
REMARK  170  A    between atoms: _429  and  _430
REMARK  171  A    between atoms: _433  and  _435
REMARK  172  A    between atoms: _435  and  _436
REMARK  173  A    between atoms: _435  and  _438
REMARK  174  A    between atoms: _441  and  _443
REMARK  175  A    between atoms: _443  and  _444
REMARK  176  A    between atoms: _443  and  _446
REMARK  177  A    between atoms: _446  and  _447
REMARK  178  A    between atoms: _450  and  _452
REMARK  179  A    between atoms: _452  and  _453
REMARK  180  A    between atoms: _452  and  _455
REMARK  181  A    between atoms: _455  and  _456
REMARK  182  A    between atoms: _458  and  _460
REMARK  183  A    between atoms: _460  and  _461
REMARK  184  A    between atoms: _463  and  _465
REMARK  185  A    between atoms: _465  and  _466
REMARK  186  A    between atoms: _465  and  _468
REMARK  187  A    between atoms: _468  and  _469
REMARK  188  A    between atoms: _472  and  _474
REMARK  189  A    between atoms: _474  and  _475
REMARK  190  A    between atoms: _474  and  _477
REMARK  191  A    between atoms: _477  and  _478
REMARK  192  A    between atoms: _481  and  _483
REMARK  193  A    between atoms: _483  and  _484
REMARK  194  A    between atoms: _483  and  _486
REMARK  195  A    between atoms: _486  and  _487
REMARK  196  A    between atoms: _492  and  _494
REMARK  197  A    between atoms: _494  and  _495
REMARK  198  A    between atoms: _494  and  _497
REMARK  199  A    between atoms: _497  and  _498
REMARK  200  A    between atoms: _498  and  _499
REMARK  201  A    between atoms: _499  and  _500
REMARK  202  A    between atoms: _509  and  _511
REMARK  203  A    between atoms: _511  and  _512
REMARK  204  A    between atoms: _511  and  _514
REMARK  205  A    between atoms: _514  and  _515
REMARK  206  A    between atoms: _518  and  _520
REMARK  207  A    between atoms: _520  and  _521
REMARK  208  A    between atoms: _520  and  _523
REMARK  209  A    between atoms: _526  and  _528
REMARK  210  A    between atoms: _528  and  _529
REMARK  211  A    between atoms: _531  and  _533
REMARK  212  A    between atoms: _533  and  _534
REMARK  213  A    between atoms: _537  and  _539
REMARK  214  A    between atoms: _539  and  _540
REMARK  215  A    between atoms: _539  and  _542
REMARK                            x       y       z     vdW  Elec       q    Type
REMARK                         _______ _______ _______ _____ _____    ______ ____
ROOT
ATOM      1  NE  ARG A   1      25.984  17.076  30.108  0.00  0.00    -0.265 N 
ATOM      2  HE  ARG A   1      26.658  17.827  30.358  0.00  0.00    +0.259 HD
ATOM      3  CZ  ARG A   1      24.726  17.425  29.863  0.00  0.00    +0.342 C 
ATOM      4  NH2 ARG A   1      24.366  18.701  29.948  0.00  0.00    -0.292 N 
ATOM      5 HH21 ARG A   1      25.068  19.423  30.206  0.00  0.00    +0.255 HD
ATOM      6 HH22 ARG A   1      23.382  18.977  29.757  0.00  0.00    +0.255 HD
ATOM      7  NH1 ARG A   1      23.827  16.504  29.539  0.00  0.00    -0.292 N 
ATOM      8 HH11 ARG A   1      24.106  15.504  29.476  0.00  0.00    +0.255 HD
ATOM      9 HH12 ARG A   1      22.843  16.782  29.348  0.00  0.00    +0.255 HD
ENDROOT
BRANCH   1  10
ATOM     10  CD  ARG A   1      26.479  15.704  30.048  0.00  0.00    +0.174 C 
BRANCH  10  11
ATOM     11  CG  ARG A   1      27.424  15.433  31.198  0.00  0.00    +0.045 C 
BRANCH  11  12
ATOM     12  CB  ARG A   1      26.743  15.527  32.575  0.00  0.00    +0.029 C 
BRANCH  12  13
ATOM     13  CA  ARG A   1      27.751  15.420  33.739  0.00  0.00    +0.133 C 
BRANCH  13  14
ATOM     14  N   ARG A   1      28.530  14.180  33.629  0.00  0.00    -0.239 NA
ATOM     15  H   ARG A   1      28.036  13.273  33.507  0.00  0.00    +0.142 HD
ENDBRANCH  13  14
BRANCH  13  16
ATOM     16  C   ARG A   1      27.070  15.432  35.101  0.00  0.00    +0.224 C 
ATOM     17  O   ARG A   1      26.520  14.416  35.542  0.00  0.00    -0.287 OA
ENDBRANCH  13  16
ENDBRANCH  12  13
ENDBRANCH  11  12
ENDBRANCH  10  11
ENDBRANCH   1  10
TORSDOF 6
REMARK  Name = ../refined-set-2016/4h3j/4h3j_pocket.pdb
REMARK  215 active torsions:
REMARK  status: ('A' for Active; 'I' for Inactive)
REMARK    1  A    between atoms: _1  and  _3
REMARK    2  A    between atoms: _3  and  _4
REMARK    3  A    between atoms: _3  and  _6
REMARK    4  A    between atoms: _6  and  _7
REMARK    5  A    between atoms: _7  and  _8
REMARK    6  A    between atoms: _8  and  _9
REMARK    7  A    between atoms: _9  and  _10
REMARK    8  A    between atoms: _14  and  _16
REMARK    9  A    between atoms: _16  and  _17
REMARK   10  A    between atoms: _16  and  _19
REMARK   11  A    between atoms: _19  and  _20
REMARK   12  A    between atoms: _22  and  _24
REMARK   13  A    between atoms: _24  and  _25
REMARK   14  A    between atoms: _27  and  _29
REMARK   15  A    between atoms: _29  and  _30
REMARK   16  A    between atoms: _29  and  _32
REMARK   17  A    between atoms: _32  and  _33
REMARK   18  A    between atoms: _33  and  _34
REMARK   19  A    between atoms: _39  and  _41
REMARK   20  A    between atoms: _41  and  _42
REMARK   21  A    between atoms: _44  and  _46
REMARK   22  A    between atoms: _46  and  _47
REMARK   23  A    between atoms: _46  and  _49
REMARK   24  A    between atoms: _49  and  _50
REMARK   25  A    between atoms: _55  and  _56
REMARK   26  A    between atoms: _58  and  _60
REMARK   27  A    between atoms: _60  and  _61
REMARK   28  A    between atoms: _60  and  _63
REMARK   29  A    between atoms: _63  and  _64
REMARK   30  A    between atoms: _67  and  _69
REMARK   31  A    between atoms: _69  and  _70
REMARK   32  A    between atoms: _69  and  _72
REMARK   33  A    between atoms: _75  and  _77
REMARK   34  A    between atoms: _77  and  _78
REMARK   35  A    between atoms: _77  and  _80
REMARK   36  A    between atoms: _80  and  _81
REMARK   37  A    between atoms: _84  and  _86
REMARK   38  A    between atoms: _86  and  _87
REMARK   39  A    between atoms: _86  and  _89
REMARK   40  A    between atoms: _89  and  _90
REMARK   41  A    between atoms: _93  and  _95
REMARK   42  A    between atoms: _95  and  _96
REMARK   43  A    between atoms: _98  and  _100
REMARK   44  A    between atoms: _100  and  _101
REMARK   45  A    between atoms: _100  and  _103
REMARK   46  A    between atoms: _103  and  _104
REMARK   47  A    between atoms: _106  and  _108
REMARK   48  A    between atoms: _108  and  _109
REMARK   49  A    between atoms: _108  and  _111
REMARK   50  A    between atoms: _111  and  _112
REMARK   51  A    between atoms: _114  and  _116
REMARK   52  A    between atoms: _116  and  _117
REMARK   53  A    between atoms: _116  and  _119
REMARK   54  A    between atoms: _119  and  _120
REMARK   55  A    between atoms: _125  and  _127
REMARK   56  A    between atoms: _127  and  _128
REMARK   57  A    between atoms: _127  and  _130
REMARK   58  A    between atoms: _130  and  _131
REMARK   59  A    between atoms: _137  and  _139
REMARK   60  A    between atoms: _139  and  _140
REMARK   61  A    between atoms: _143  and  _145
REMARK   62  A    between atoms: _145  and  _146
REMARK   63  A    between atoms: _145  and  _148
REMARK   64  A    between atoms: _151  and  _153
REMARK   65  A    between atoms: _153  and  _154
REMARK   66  A    between atoms: _153  and  _156
REMARK   67  A    between atoms: _156  and  _157
REMARK   68  A    between atoms: _162  and  _163
REMARK   69  A    between atoms: _165  and  _167
REMARK   70  A    between atoms: _167  and  _168
REMARK   71  A    between atoms: _167  and  _170
REMARK   72  A    between atoms: _174  and  _175
REMARK   73  A    between atoms: _180  and  _182
REMARK   74  A    between atoms: _182  and  _183
REMARK   75  A    between atoms: _182  and  _185
REMARK   76  A    between atoms: _185  and  _186
REMARK   77  A    between atoms: _191  and  _192
REMARK   78  A    between atoms: _194  and  _196
REMARK   79  A    between atoms: _196  and  _197
REMARK   80  A    between atoms: _196  and  _199
REMARK   81  A    between atoms: _199  and  _200
REMARK   82  A    between atoms: _203  and  _205
REMARK   83  A    between atoms: _205  and  _206
REMARK   84  A    between atoms: _205  and  _208
REMARK   85  A    between atoms: _208  and  _209
REMARK   86  A    between atoms: _209  and  _210
REMARK   87  A    between atoms: _215  and  _217
REMARK   88  A    between atoms: _217  and  _218
REMARK   89  A    between atoms: _220  and  _222
REMARK   90  A    between atoms: _222  and  _223
REMARK   91  A    between atoms: _222  and  _225
REMARK   92  A    between atoms: _225  and  _226
REMARK   93  A    between atoms: _226  and  _227
REMARK   94  A    between atoms: _227  and  _228
REMARK   95  A    between atoms: _228  and  _229
REMARK   96  A    between atoms: _233  and  _235
REMARK   97  A    between atoms: _235  and  _236
REMARK   98  A    between atoms: _235  and  _238
REMARK   99  A    between atoms: _238  and  _239
REMARK  100  A    between atoms: _249  and  _251
REMARK  101  A    between atoms: _251  and  _252
REMARK  102  A    between atoms: _255  and  _257
REMARK  103  A    between atoms: _257  and  _258
REMARK  104  A    between atoms: _257  and  _260
REMARK  105  A    between atoms: _260  and  _261
REMARK  106  A    between atoms: _261  and  _262
REMARK  107  A    between atoms: _262  and  _263
REMARK  108  A    between atoms: _263  and  _264
REMARK  109  A    between atoms: _268  and  _270
REMARK  110  A    between atoms: _270  and  _271
REMARK  111  A    between atoms: _270  and  _273
REMARK  112  A    between atoms: _273  and  _274
REMARK  113  A    between atoms: _280  and  _282
REMARK  114  A    between atoms: _282  and  _283
REMARK  115  A    between atoms: _282  and  _285
REMARK  116  A    between atoms: _285  and  _286
REMARK  117  A    between atoms: _292  and  _294
REMARK  118  A    between atoms: _294  and  _295
REMARK  119  A    between atoms: _294  and  _297
REMARK  120  A    between atoms: _297  and  _298
REMARK  121  A    between atoms: _301  and  _303
REMARK  122  A    between atoms: _303  and  _304
REMARK  123  A    between atoms: _303  and  _306
REMARK  124  A    between atoms: _306  and  _307
REMARK  125  A    between atoms: _309  and  _311
REMARK  126  A    between atoms: _311  and  _312
REMARK  127  A    between atoms: _311  and  _314
REMARK  128  A    between atoms: _314  and  _315
REMARK  129  A    between atoms: _325  and  _327
REMARK  130  A    between atoms: _327  and  _328
REMARK  131  A    between atoms: _330  and  _332
REMARK  132  A    between atoms: _332  and  _333
REMARK  133  A    between atoms: _332  and  _335
REMARK  134  A    between atoms: _335  and  _336
REMARK  135  A    between atoms: _339  and  _341
REMARK  136  A    between atoms: _341  and  _342
REMARK  137  A    between atoms: _341  and  _344
REMARK  138  A    between atoms: _344  and  _345
REMARK  139  A    between atoms: _348  and  _350
REMARK  140  A    between atoms: _350  and  _351
REMARK  141  A    between atoms: _353  and  _355
REMARK  142  A    between atoms: _355  and  _356
REMARK  143  A    between atoms: _355  and  _358
REMARK  144  A    between atoms: _358  and  _359
REMARK  145  A    between atoms: _362  and  _364
REMARK  146  A    between atoms: _364  and  _365
REMARK  147  A    between atoms: _364  and  _367
REMARK  148  A    between atoms: _367  and  _368
REMARK  149  A    between atoms: _371  and  _373
REMARK  150  A    between atoms: _373  and  _374
REMARK  151  A    between atoms: _377  and  _379
REMARK  152  A    between atoms: _379  and  _380
REMARK  153  A    between atoms: _379  and  _382
REMARK  154  A    between atoms: _382  and  _383
REMARK  155  A    between atoms: _383  and  _384
REMARK  156  A    between atoms: _384  and  _385
REMARK  157  A    between atoms: _395  and  _396
REMARK  158  A    between atoms: _401  and  _403
REMARK  159  A    between atoms: _403  and  _404
REMARK  160  A    between atoms: _403  and  _406
REMARK  161  A    between atoms: _406  and  _407
REMARK  162  A    between atoms: _410  and  _412
REMARK  163  A    between atoms: _412  and  _413
REMARK  164  A    between atoms: _412  and  _415
REMARK  165  A    between atoms: _415  and  _416
REMARK  166  A    between atoms: _421  and  _422
REMARK  167  A    between atoms: _424  and  _426
REMARK  168  A    between atoms: _426  and  _427
REMARK  169  A    between atoms: _426  and  _429
REMARK  170  A    between atoms: _429  and  _430
REMARK  171  A    between atoms: _433  and  _435
REMARK  172  A    between atoms: _435  and  _436
REMARK  173  A    between atoms: _435  and  _438
REMARK  174  A    between atoms: _441  and  _443
REMARK  175  A    between atoms: _443  and  _444
REMARK  176  A    between atoms: _443  and  _446
REMARK  177  A    between atoms: _446  and  _447
REMARK  178  A    between atoms: _450  and  _452
REMARK  179  A    between atoms: _452  and  _453
REMARK  180  A    between atoms: _452  and  _455
REMARK  181  A    between atoms: _455  and  _456
REMARK  182  A    between atoms: _458  and  _460
REMARK  183  A    between atoms: _460  and  _461
REMARK  184  A    between atoms: _463  and  _465
REMARK  185  A    between atoms: _465  and  _466
REMARK  186  A    between atoms: _465  and  _468
REMARK  187  A    between atoms: _468  and  _469
REMARK  188  A    between atoms: _472  and  _474
REMARK  189  A    between atoms: _474  and  _475
REMARK  190  A    between atoms: _474  and  _477
REMARK  191  A    between atoms: _477  and  _478
REMARK  192  A    between atoms: _481  and  _483
REMARK  193  A    between atoms: _483  and  _484
REMARK  194  A    between atoms: _483  and  _486
REMARK  195  A    between atoms: _486  and  _487
REMARK  196  A    between atoms: _492  and  _494
REMARK  197  A    between atoms: _494  and  _495
REMARK  198  A    between atoms: _494  and  _497
REMARK  199  A    between atoms: _497  and  _498
REMARK  200  A    between atoms: _498  and  _499
REMARK  201  A    between atoms: _499  and  _500
REMARK  202  A    between atoms: _509  and  _511
REMARK  203  A    between atoms: _511  and  _512
REMARK  204  A    between atoms: _511  and  _514
REMARK  205  A    between atoms: _514  and  _515
REMARK  206  A    between atoms: _518  and  _520
REMARK  207  A    between atoms: _520  and  _521
REMARK  208  A    between atoms: _520  and  _523
REMARK  209  A    between atoms: _526  and  _528
REMARK  210  A    between atoms: _528  and  _529
REMARK  211  A    between atoms: _531  and  _533
REMARK  212  A    between atoms: _533  and  _534
REMARK  213  A    between atoms: _537  and  _539
REMARK  214  A    between atoms: _539  and  _540
REMARK  215  A    between atoms: _539  and  _542
REMARK                            x       y       z     vdW  Elec       q    Type
REMARK                         _______ _______ _______ _____ _____    ______ ____
ROOT
ATOM      1  CA  THR A   1      18.773  17.130  33.364  0.00  0.00    +0.160 C 
ENDROOT
BRANCH   1   2
ATOM      2  N   THR A   1      19.624  18.307  33.448  0.00  0.00    -0.237 NA
ATOM      3  H   THR A   1      20.633  18.222  33.211  0.00  0.00    +0.142 HD
ENDBRANCH   1   2
BRANCH   1   4
ATOM      4  C   THR A   1      19.272  15.946  34.190  0.00  0.00    +0.227 C 
ATOM      5  O   THR A   1      19.011  14.784  33.859  0.00  0.00    -0.287 OA
ENDBRANCH   1   4
BRANCH   1   6
ATOM      6  CB  THR A   1      18.584  16.689  31.895  0.00  0.00    +0.134 C 
ATOM      7  CG2 THR A   1      17.967  17.832  31.076  0.00  0.00    +0.034 C 
BRANCH   6   8
ATOM      8  OG1 THR A   1      19.849  16.345  31.322  0.00  0.00    -0.383 OA
ATOM      9  HG1 THR A   1      20.252  15.602  31.837  0.00  0.00    +0.210 HD
ENDBRANCH   6   8
ENDBRANCH   1   6
TORSDOF 4
REMARK  Name = ../refined-set-2016/4h3j/4h3j_pocket.pdb
REMARK  215 active torsions:
REMARK  status: ('A' for Active; 'I' for Inactive)
REMARK    1  A    between atoms: _1  and  _3
REMARK    2  A    between atoms: _3  and  _4
REMARK    3  A    between atoms: _3  and  _6
REMARK    4  A    between atoms: _6  and  _7
REMARK    5  A    between atoms: _7  and  _8
REMARK    6  A    between atoms: _8  and  _9
REMARK    7  A    between atoms: _9  and  _10
REMARK    8  A    between atoms: _14  and  _16
REMARK    9  A    between atoms: _16  and  _17
REMARK   10  A    between atoms: _16  and  _19
REMARK   11  A    between atoms: _19  and  _20
REMARK   12  A    between atoms: _22  and  _24
REMARK   13  A    between atoms: _24  and  _25
REMARK   14  A    between atoms: _27  and  _29
REMARK   15  A    between atoms: _29  and  _30
REMARK   16  A    between atoms: _29  and  _32
REMARK   17  A    between atoms: _32  and  _33
REMARK   18  A    between atoms: _33  and  _34
REMARK   19  A    between atoms: _39  and  _41
REMARK   20  A    between atoms: _41  and  _42
REMARK   21  A    between atoms: _44  and  _46
REMARK   22  A    between atoms: _46  and  _47
REMARK   23  A    between atoms: _46  and  _49
REMARK   24  A    between atoms: _49  and  _50
REMARK   25  A    between atoms: _55  and  _56
REMARK   26  A    between atoms: _58  and  _60
REMARK   27  A    between atoms: _60  and  _61
REMARK   28  A    between atoms: _60  and  _63
REMARK   29  A    between atoms: _63  and  _64
REMARK   30  A    between atoms: _67  and  _69
REMARK   31  A    between atoms: _69  and  _70
REMARK   32  A    between atoms: _69  and  _72
REMARK   33  A    between atoms: _75  and  _77
REMARK   34  A    between atoms: _77  and  _78
REMARK   35  A    between atoms: _77  and  _80
REMARK   36  A    between atoms: _80  and  _81
REMARK   37  A    between atoms: _84  and  _86
REMARK   38  A    between atoms: _86  and  _87
REMARK   39  A    between atoms: _86  and  _89
REMARK   40  A    between atoms: _89  and  _90
REMARK   41  A    between atoms: _93  and  _95
REMARK   42  A    between atoms: _95  and  _96
REMARK   43  A    between atoms: _98  and  _100
REMARK   44  A    between atoms: _100  and  _101
REMARK   45  A    between atoms: _100  and  _103
REMARK   46  A    between atoms: _103  and  _104
REMARK   47  A    between atoms: _106  and  _108
REMARK   48  A    between atoms: _108  and  _109
REMARK   49  A    between atoms: _108  and  _111
REMARK   50  A    between atoms: _111  and  _112
REMARK   51  A    between atoms: _114  and  _116
REMARK   52  A    between atoms: _116  and  _117
REMARK   53  A    between atoms: _116  and  _119
REMARK   54  A    between atoms: _119  and  _120
REMARK   55  A    between atoms: _125  and  _127
REMARK   56  A    between atoms: _127  and  _128
REMARK   57  A    between atoms: _127  and  _130
REMARK   58  A    between atoms: _130  and  _131
REMARK   59  A    between atoms: _137  and  _139
REMARK   60  A    between atoms: _139  and  _140
REMARK   61  A    between atoms: _143  and  _145
REMARK   62  A    between atoms: _145  and  _146
REMARK   63  A    between atoms: _145  and  _148
REMARK   64  A    between atoms: _151  and  _153
REMARK   65  A    between atoms: _153  and  _154
REMARK   66  A    between atoms: _153  and  _156
REMARK   67  A    between atoms: _156  and  _157
REMARK   68  A    between atoms: _162  and  _163
REMARK   69  A    between atoms: _165  and  _167
REMARK   70  A    between atoms: _167  and  _168
REMARK   71  A    between atoms: _167  and  _170
REMARK   72  A    between atoms: _174  and  _175
REMARK   73  A    between atoms: _180  and  _182
REMARK   74  A    between atoms: _182  and  _183
REMARK   75  A    between atoms: _182  and  _185
REMARK   76  A    between atoms: _185  and  _186
REMARK   77  A    between atoms: _191  and  _192
REMARK   78  A    between atoms: _194  and  _196
REMARK   79  A    between atoms: _196  and  _197
REMARK   80  A    between atoms: _196  and  _199
REMARK   81  A    between atoms: _199  and  _200
REMARK   82  A    between atoms: _203  and  _205
REMARK   83  A    between atoms: _205  and  _206
REMARK   84  A    between atoms: _205  and  _208
REMARK   85  A    between atoms: _208  and  _209
REMARK   86  A    between atoms: _209  and  _210
REMARK   87  A    between atoms: _215  and  _217
REMARK   88  A    between atoms: _217  and  _218
REMARK   89  A    between atoms: _220  and  _222
REMARK   90  A    between atoms: _222  and  _223
REMARK   91  A    between atoms: _222  and  _225
REMARK   92  A    between atoms: _225  and  _226
REMARK   93  A    between atoms: _226  and  _227
REMARK   94  A    between atoms: _227  and  _228
REMARK   95  A    between atoms: _228  and  _229
REMARK   96  A    between atoms: _233  and  _235
REMARK   97  A    between atoms: _235  and  _236
REMARK   98  A    between atoms: _235  and  _238
REMARK   99  A    between atoms: _238  and  _239
REMARK  100  A    between atoms: _249  and  _251
REMARK  101  A    between atoms: _251  and  _252
REMARK  102  A    between atoms: _255  and  _257
REMARK  103  A    between atoms: _257  and  _258
REMARK  104  A    between atoms: _257  and  _260
REMARK  105  A    between atoms: _260  and  _261
REMARK  106  A    between atoms: _261  and  _262
REMARK  107  A    between atoms: _262  and  _263
REMARK  108  A    between atoms: _263  and  _264
REMARK  109  A    between atoms: _268  and  _270
REMARK  110  A    between atoms: _270  and  _271
REMARK  111  A    between atoms: _270  and  _273
REMARK  112  A    between atoms: _273  and  _274
REMARK  113  A    between atoms: _280  and  _282
REMARK  114  A    between atoms: _282  and  _283
REMARK  115  A    between atoms: _282  and  _285
REMARK  116  A    between atoms: _285  and  _286
REMARK  117  A    between atoms: _292  and  _294
REMARK  118  A    between atoms: _294  and  _295
REMARK  119  A    between atoms: _294  and  _297
REMARK  120  A    between atoms: _297  and  _298
REMARK  121  A    between atoms: _301  and  _303
REMARK  122  A    between atoms: _303  and  _304
REMARK  123  A    between atoms: _303  and  _306
REMARK  124  A    between atoms: _306  and  _307
REMARK  125  A    between atoms: _309  and  _311
REMARK  126  A    between atoms: _311  and  _312
REMARK  127  A    between atoms: _311  and  _314
REMARK  128  A    between atoms: _314  and  _315
REMARK  129  A    between atoms: _325  and  _327
REMARK  130  A    between atoms: _327  and  _328
REMARK  131  A    between atoms: _330  and  _332
REMARK  132  A    between atoms: _332  and  _333
REMARK  133  A    between atoms: _332  and  _335
REMARK  134  A    between atoms: _335  and  _336
REMARK  135  A    between atoms: _339  and  _341
REMARK  136  A    between atoms: _341  and  _342
REMARK  137  A    between atoms: _341  and  _344
REMARK  138  A    between atoms: _344  and  _345
REMARK  139  A    between atoms: _348  and  _350
REMARK  140  A    between atoms: _350  and  _351
REMARK  141  A    between atoms: _353  and  _355
REMARK  142  A    between atoms: _355  and  _356
REMARK  143  A    between atoms: _355  and  _358
REMARK  144  A    between atoms: _358  and  _359
REMARK  145  A    between atoms: _362  and  _364
REMARK  146  A    between atoms: _364  and  _365
REMARK  147  A    between atoms: _364  and  _367
REMARK  148  A    between atoms: _367  and  _368
REMARK  149  A    between atoms: _371  and  _373
REMARK  150  A    between atoms: _373  and  _374
REMARK  151  A    between atoms: _377  and  _379
REMARK  152  A    between atoms: _379  and  _380
REMARK  153  A    between atoms: _379  and  _382
REMARK  154  A    between atoms: _382  and  _383
REMARK  155  A    between atoms: _383  and  _384
REMARK  156  A    between atoms: _384  and  _385
REMARK  157  A    between atoms: _395  and  _396
REMARK  158  A    between atoms: _401  and  _403
REMARK  159  A    between atoms: _403  and  _404
REMARK  160  A    between atoms: _403  and  _406
REMARK  161  A    between atoms: _406  and  _407
REMARK  162  A    between atoms: _410  and  _412
REMARK  163  A    between atoms: _412  and  _413
REMARK  164  A    between atoms: _412  and  _415
REMARK  165  A    between atoms: _415  and  _416
REMARK  166  A    between atoms: _421  and  _422
REMARK  167  A    between atoms: _424  and  _426
REMARK  168  A    between atoms: _426  and  _427
REMARK  169  A    between atoms: _426  and  _429
REMARK  170  A    between atoms: _429  and  _430
REMARK  171  A    between atoms: _433  and  _435
REMARK  172  A    between atoms: _435  and  _436
REMARK  173  A    between atoms: _435  and  _438
REMARK  174  A    between atoms: _441  and  _443
REMARK  175  A    between atoms: _443  and  _444
REMARK  176  A    between atoms: _443  and  _446
REMARK  177  A    between atoms: _446  and  _447
REMARK  178  A    between atoms: _450  and  _452
REMARK  179  A    between atoms: _452  and  _453
REMARK  180  A    between atoms: _452  and  _455
REMARK  181  A    between atoms: _455  and  _456
REMARK  182  A    between atoms: _458  and  _460
REMARK  183  A    between atoms: _460  and  _461
REMARK  184  A    between atoms: _463  and  _465
REMARK  185  A    between atoms: _465  and  _466
REMARK  186  A    between atoms: _465  and  _468
REMARK  187  A    between atoms: _468  and  _469
REMARK  188  A    between atoms: _472  and  _474
REMARK  189  A    between atoms: _474  and  _475
REMARK  190  A    between atoms: _474  and  _477
REMARK  191  A    between atoms: _477  and  _478
REMARK  192  A    between atoms: _481  and  _483
REMARK  193  A    between atoms: _483  and  _484
REMARK  194  A    between atoms: _483  and  _486
REMARK  195  A    between atoms: _486  and  _487
REMARK  196  A    between atoms: _492  and  _494
REMARK  197  A    between atoms: _494  and  _495
REMARK  198  A    between atoms: _494  and  _497
REMARK  199  A    between atoms: _497  and  _498
REMARK  200  A    between atoms: _498  and  _499
REMARK  201  A    between atoms: _499  and  _500
REMARK  202  A    between atoms: _509  and  _511
REMARK  203  A    between atoms: _511  and  _512
REMARK  204  A    between atoms: _511  and  _514
REMARK  205  A    between atoms: _514  and  _515
REMARK  206  A    between atoms: _518  and  _520
REMARK  207  A    between atoms: _520  and  _521
REMARK  208  A    between atoms: _520  and  _523
REMARK  209  A    between atoms: _526  and  _528
REMARK  210  A    between atoms: _528  and  _529
REMARK  211  A    between atoms: _531  and  _533
REMARK  212  A    between atoms: _533  and  _534
REMARK  213  A    between atoms: _537  and  _539
REMARK  214  A    between atoms: _539  and  _540
REMARK  215  A    between atoms: _539  and  _542
REMARK                            x       y       z     vdW  Elec       q    Type
REMARK                         _______ _______ _______ _____ _____    ______ ____
ROOT
ATOM      1  CA  VAL A   1      24.994  11.434  33.483  0.00  0.00    +0.133 C 
ENDROOT
BRANCH   1   2
ATOM      2  CB  VAL A   1      24.916  12.107  32.103  0.00  0.00    +0.023 C 
ATOM      3  CG2 VAL A   1      23.616  12.883  31.982  0.00  0.00    +0.002 C 
ATOM      4  CG1 VAL A   1      25.048  11.046  30.990  0.00  0.00    +0.002 C 
ENDBRANCH   1   2
BRANCH   1   5
ATOM      5  N   VAL A   1      24.830  12.384  34.586  0.00  0.00    -0.239 NA
ATOM      6  H   VAL A   1      25.557  13.109  34.752  0.00  0.00    +0.142 HD
ENDBRANCH   1   5
BRANCH   1   7
ATOM      7  C   VAL A   1      26.381  10.810  33.630  0.00  0.00    +0.224 C 
ATOM      8  O   VAL A   1      27.405  11.501  33.550  0.00  0.00    -0.287 OA
ENDBRANCH   1   7
TORSDOF 3
REMARK  Name = ../refined-set-2016/4h3j/4h3j_pocket.pdb
REMARK  215 active torsions:
REMARK  status: ('A' for Active; 'I' for Inactive)
REMARK    1  A    between atoms: _1  and  _3
REMARK    2  A    between atoms: _3  and  _4
REMARK    3  A    between atoms: _3  and  _6
REMARK    4  A    between atoms: _6  and  _7
REMARK    5  A    between atoms: _7  and  _8
REMARK    6  A    between atoms: _8  and  _9
REMARK    7  A    between atoms: _9  and  _10
REMARK    8  A    between atoms: _14  and  _16
REMARK    9  A    between atoms: _16  and  _17
REMARK   10  A    between atoms: _16  and  _19
REMARK   11  A    between atoms: _19  and  _20
REMARK   12  A    between atoms: _22  and  _24
REMARK   13  A    between atoms: _24  and  _25
REMARK   14  A    between atoms: _27  and  _29
REMARK   15  A    between atoms: _29  and  _30
REMARK   16  A    between atoms: _29  and  _32
REMARK   17  A    between atoms: _32  and  _33
REMARK   18  A    between atoms: _33  and  _34
REMARK   19  A    between atoms: _39  and  _41
REMARK   20  A    between atoms: _41  and  _42
REMARK   21  A    between atoms: _44  and  _46
REMARK   22  A    between atoms: _46  and  _47
REMARK   23  A    between atoms: _46  and  _49
REMARK   24  A    between atoms: _49  and  _50
REMARK   25  A    between atoms: _55  and  _56
REMARK   26  A    between atoms: _58  and  _60
REMARK   27  A    between atoms: _60  and  _61
REMARK   28  A    between atoms: _60  and  _63
REMARK   29  A    between atoms: _63  and  _64
REMARK   30  A    between atoms: _67  and  _69
REMARK   31  A    between atoms: _69  and  _70
REMARK   32  A    between atoms: _69  and  _72
REMARK   33  A    between atoms: _75  and  _77
REMARK   34  A    between atoms: _77  and  _78
REMARK   35  A    between atoms: _77  and  _80
REMARK   36  A    between atoms: _80  and  _81
REMARK   37  A    between atoms: _84  and  _86
REMARK   38  A    between atoms: _86  and  _87
REMARK   39  A    between atoms: _86  and  _89
REMARK   40  A    between atoms: _89  and  _90
REMARK   41  A    between atoms: _93  and  _95
REMARK   42  A    between atoms: _95  and  _96
REMARK   43  A    between atoms: _98  and  _100
REMARK   44  A    between atoms: _100  and  _101
REMARK   45  A    between atoms: _100  and  _103
REMARK   46  A    between atoms: _103  and  _104
REMARK   47  A    between atoms: _106  and  _108
REMARK   48  A    between atoms: _108  and  _109
REMARK   49  A    between atoms: _108  and  _111
REMARK   50  A    between atoms: _111  and  _112
REMARK   51  A    between atoms: _114  and  _116
REMARK   52  A    between atoms: _116  and  _117
REMARK   53  A    between atoms: _116  and  _119
REMARK   54  A    between atoms: _119  and  _120
REMARK   55  A    between atoms: _125  and  _127
REMARK   56  A    between atoms: _127  and  _128
REMARK   57  A    between atoms: _127  and  _130
REMARK   58  A    between atoms: _130  and  _131
REMARK   59  A    between atoms: _137  and  _139
REMARK   60  A    between atoms: _139  and  _140
REMARK   61  A    between atoms: _143  and  _145
REMARK   62  A    between atoms: _145  and  _146
REMARK   63  A    between atoms: _145  and  _148
REMARK   64  A    between atoms: _151  and  _153
REMARK   65  A    between atoms: _153  and  _154
REMARK   66  A    between atoms: _153  and  _156
REMARK   67  A    between atoms: _156  and  _157
REMARK   68  A    between atoms: _162  and  _163
REMARK   69  A    between atoms: _165  and  _167
REMARK   70  A    between atoms: _167  and  _168
REMARK   71  A    between atoms: _167  and  _170
REMARK   72  A    between atoms: _174  and  _175
REMARK   73  A    between atoms: _180  and  _182
REMARK   74  A    between atoms: _182  and  _183
REMARK   75  A    between atoms: _182  and  _185
REMARK   76  A    between atoms: _185  and  _186
REMARK   77  A    between atoms: _191  and  _192
REMARK   78  A    between atoms: _194  and  _196
REMARK   79  A    between atoms: _196  and  _197
REMARK   80  A    between atoms: _196  and  _199
REMARK   81  A    between atoms: _199  and  _200
REMARK   82  A    between atoms: _203  and  _205
REMARK   83  A    between atoms: _205  and  _206
REMARK   84  A    between atoms: _205  and  _208
REMARK   85  A    between atoms: _208  and  _209
REMARK   86  A    between atoms: _209  and  _210
REMARK   87  A    between atoms: _215  and  _217
REMARK   88  A    between atoms: _217  and  _218
REMARK   89  A    between atoms: _220  and  _222
REMARK   90  A    between atoms: _222  and  _223
REMARK   91  A    between atoms: _222  and  _225
REMARK   92  A    between atoms: _225  and  _226
REMARK   93  A    between atoms: _226  and  _227
REMARK   94  A    between atoms: _227  and  _228
REMARK   95  A    between atoms: _228  and  _229
REMARK   96  A    between atoms: _233  and  _235
REMARK   97  A    between atoms: _235  and  _236
REMARK   98  A    between atoms: _235  and  _238
REMARK   99  A    between atoms: _238  and  _239
REMARK  100  A    between atoms: _249  and  _251
REMARK  101  A    between atoms: _251  and  _252
REMARK  102  A    between atoms: _255  and  _257
REMARK  103  A    between atoms: _257  and  _258
REMARK  104  A    between atoms: _257  and  _260
REMARK  105  A    between atoms: _260  and  _261
REMARK  106  A    between atoms: _261  and  _262
REMARK  107  A    between atoms: _262  and  _263
REMARK  108  A    between atoms: _263  and  _264
REMARK  109  A    between atoms: _268  and  _270
REMARK  110  A    between atoms: _270  and  _271
REMARK  111  A    between atoms: _270  and  _273
REMARK  112  A    between atoms: _273  and  _274
REMARK  113  A    between atoms: _280  and  _282
REMARK  114  A    between atoms: _282  and  _283
REMARK  115  A    between atoms: _282  and  _285
REMARK  116  A    between atoms: _285  and  _286
REMARK  117  A    between atoms: _292  and  _294
REMARK  118  A    between atoms: _294  and  _295
REMARK  119  A    between atoms: _294  and  _297
REMARK  120  A    between atoms: _297  and  _298
REMARK  121  A    between atoms: _301  and  _303
REMARK  122  A    between atoms: _303  and  _304
REMARK  123  A    between atoms: _303  and  _306
REMARK  124  A    between atoms: _306  and  _307
REMARK  125  A    between atoms: _309  and  _311
REMARK  126  A    between atoms: _311  and  _312
REMARK  127  A    between atoms: _311  and  _314
REMARK  128  A    between atoms: _314  and  _315
REMARK  129  A    between atoms: _325  and  _327
REMARK  130  A    between atoms: _327  and  _328
REMARK  131  A    between atoms: _330  and  _332
REMARK  132  A    between atoms: _332  and  _333
REMARK  133  A    between atoms: _332  and  _335
REMARK  134  A    between atoms: _335  and  _336
REMARK  135  A    between atoms: _339  and  _341
REMARK  136  A    between atoms: _341  and  _342
REMARK  137  A    between atoms: _341  and  _344
REMARK  138  A    between atoms: _344  and  _345
REMARK  139  A    between atoms: _348  and  _350
REMARK  140  A    between atoms: _350  and  _351
REMARK  141  A    between atoms: _353  and  _355
REMARK  142  A    between atoms: _355  and  _356
REMARK  143  A    between atoms: _355  and  _358
REMARK  144  A    between atoms: _358  and  _359
REMARK  145  A    between atoms: _362  and  _364
REMARK  146  A    between atoms: _364  and  _365
REMARK  147  A    between atoms: _364  and  _367
REMARK  148  A    between atoms: _367  and  _368
REMARK  149  A    between atoms: _371  and  _373
REMARK  150  A    between atoms: _373  and  _374
REMARK  151  A    between atoms: _377  and  _379
REMARK  152  A    between atoms: _379  and  _380
REMARK  153  A    between atoms: _379  and  _382
REMARK  154  A    between atoms: _382  and  _383
REMARK  155  A    between atoms: _383  and  _384
REMARK  156  A    between atoms: _384  and  _385
REMARK  157  A    between atoms: _395  and  _396
REMARK  158  A    between atoms: _401  and  _403
REMARK  159  A    between atoms: _403  and  _404
REMARK  160  A    between atoms: _403  and  _406
REMARK  161  A    between atoms: _406  and  _407
REMARK  162  A    between atoms: _410  and  _412
REMARK  163  A    between atoms: _412  and  _413
REMARK  164  A    between atoms: _412  and  _415
REMARK  165  A    between atoms: _415  and  _416
REMARK  166  A    between atoms: _421  and  _422
REMARK  167  A    between atoms: _424  and  _426
REMARK  168  A    between atoms: _426  and  _427
REMARK  169  A    between atoms: _426  and  _429
REMARK  170  A    between atoms: _429  and  _430
REMARK  171  A    between atoms: _433  and  _435
REMARK  172  A    between atoms: _435  and  _436
REMARK  173  A    between atoms: _435  and  _438
REMARK  174  A    between atoms: _441  and  _443
REMARK  175  A    between atoms: _443  and  _444
REMARK  176  A    between atoms: _443  and  _446
REMARK  177  A    between atoms: _446  and  _447
REMARK  178  A    between atoms: _450  and  _452
REMARK  179  A    between atoms: _452  and  _453
REMARK  180  A    between atoms: _452  and  _455
REMARK  181  A    between atoms: _455  and  _456
REMARK  182  A    between atoms: _458  and  _460
REMARK  183  A    between atoms: _460  and  _461
REMARK  184  A    between atoms: _463  and  _465
REMARK  185  A    between atoms: _465  and  _466
REMARK  186  A    between atoms: _465  and  _468
REMARK  187  A    between atoms: _468  and  _469
REMARK  188  A    between atoms: _472  and  _474
REMARK  189  A    between atoms: _474  and  _475
REMARK  190  A    between atoms: _474  and  _477
REMARK  191  A    between atoms: _477  and  _478
REMARK  192  A    between atoms: _481  and  _483
REMARK  193  A    between atoms: _483  and  _484
REMARK  194  A    between atoms: _483  and  _486
REMARK  195  A    between atoms: _486  and  _487
REMARK  196  A    between atoms: _492  and  _494
REMARK  197  A    between atoms: _494  and  _495
REMARK  198  A    between atoms: _494  and  _497
REMARK  199  A    between atoms: _497  and  _498
REMARK  200  A    between atoms: _498  and  _499
REMARK  201  A    between atoms: _499  and  _500
REMARK  202  A    between atoms: _509  and  _511
REMARK  203  A    between atoms: _511  and  _512
REMARK  204  A    between atoms: _511  and  _514
REMARK  205  A    between atoms: _514  and  _515
REMARK  206  A    between atoms: _518  and  _520
REMARK  207  A    between atoms: _520  and  _521
REMARK  208  A    between atoms: _520  and  _523
REMARK  209  A    between atoms: _526  and  _528
REMARK  210  A    between atoms: _528  and  _529
REMARK  211  A    between atoms: _531  and  _533
REMARK  212  A    between atoms: _533  and  _534
REMARK  213  A    between atoms: _537  and  _539
REMARK  214  A    between atoms: _539  and  _540
REMARK  215  A    between atoms: _539  and  _542
REMARK                            x       y       z     vdW  Elec       q    Type
REMARK                         _______ _______ _______ _____ _____    ______ ____
ROOT
ATOM      1  C   ALA A   2      33.306   7.708  29.874  0.00  0.00    +0.241 C 
ATOM      2  N   VAL A   3      33.403   8.924  30.435  0.00  0.00    -0.298 N 
ATOM      3  H   VAL A   3      32.739   9.663  30.128  0.00  0.00    +0.150 HD
ATOM      4  O   ALA A   2      34.075   6.781  30.145  0.00  0.00    -0.273 OA
ENDROOT
BRANCH   1   5
ATOM      5  CA  ALA A   2      32.184   7.479  28.856  0.00  0.00    +0.149 C 
ATOM      6  CB  ALA A   2      32.654   7.821  27.439  0.00  0.00    +0.031 C 
BRANCH   5   9
ATOM      7  C   GLY A   1      30.392   8.157  30.359  0.00  0.00    +0.240 C 
ATOM      8  O   GLY A   1      30.846   7.530  31.305  0.00  0.00    -0.274 OA
ATOM      9  N   ALA A   2      30.965   8.214  29.161  0.00  0.00    -0.297 N 
ATOM     10  H   ALA A   2      30.530   8.800  28.420  0.00  0.00    +0.150 HD
BRANCH   7  11
ATOM     11  CA  GLY A   1      29.115   8.941  30.517  0.00  0.00    +0.169 C 
BRANCH  11  12
ATOM     12  N   GLY A   1      28.752   9.177  31.901  0.00  0.00    -0.236 NA
ATOM     13  H   GLY A   1      29.094  10.042  32.367  0.00  0.00    +0.142 HD
ENDBRANCH  11  12
ENDBRANCH   7  11
ENDBRANCH   5   9
ENDBRANCH   1   5
BRANCH   2  14
ATOM     14  CA  VAL A   3      34.405   9.268  31.467  0.00  0.00    +0.137 C 
BRANCH  14  15
ATOM     15  CB  VAL A   3      34.115  10.655  32.145  0.00  0.00    +0.026 C 
ATOM     16  CG2 VAL A   3      34.814  10.745  33.524  0.00  0.00    +0.002 C 
ATOM     17  CG1 VAL A   3      34.592  11.751  31.286  0.00  0.00    +0.002 C 
ENDBRANCH  14  15
BRANCH  14  18
ATOM     18  C   VAL A   3      34.385   8.256  32.591  0.00  0.00    +0.227 C 
ATOM     19  O   VAL A   3      35.427   7.763  33.035  0.00  0.00    -0.286 OA
ENDBRANCH  14  18
ENDBRANCH   2  14
TORSDOF 7
REMARK  Name = ../refined-set-2016/4h3j/4h3j_pocket.pdb
REMARK  215 active torsions:
REMARK  status: ('A' for Active; 'I' for Inactive)
REMARK    1  A    between atoms: _1  and  _3
REMARK    2  A    between atoms: _3  and  _4
REMARK    3  A    between atoms: _3  and  _6
REMARK    4  A    between atoms: _6  and  _7
REMARK    5  A    between atoms: _7  and  _8
REMARK    6  A    between atoms: _8  and  _9
REMARK    7  A    between atoms: _9  and  _10
REMARK    8  A    between atoms: _14  and  _16
REMARK    9  A    between atoms: _16  and  _17
REMARK   10  A    between atoms: _16  and  _19
REMARK   11  A    between atoms: _19  and  _20
REMARK   12  A    between atoms: _22  and  _24
REMARK   13  A    between atoms: _24  and  _25
REMARK   14  A    between atoms: _27  and  _29
REMARK   15  A    between atoms: _29  and  _30
REMARK   16  A    between atoms: _29  and  _32
REMARK   17  A    between atoms: _32  and  _33
REMARK   18  A    between atoms: _33  and  _34
REMARK   19  A    between atoms: _39  and  _41
REMARK   20  A    between atoms: _41  and  _42
REMARK   21  A    between atoms: _44  and  _46
REMARK   22  A    between atoms: _46  and  _47
REMARK   23  A    between atoms: _46  and  _49
REMARK   24  A    between atoms: _49  and  _50
REMARK   25  A    between atoms: _55  and  _56
REMARK   26  A    between atoms: _58  and  _60
REMARK   27  A    between atoms: _60  and  _61
REMARK   28  A    between atoms: _60  and  _63
REMARK   29  A    between atoms: _63  and  _64
REMARK   30  A    between atoms: _67  and  _69
REMARK   31  A    between atoms: _69  and  _70
REMARK   32  A    between atoms: _69  and  _72
REMARK   33  A    between atoms: _75  and  _77
REMARK   34  A    between atoms: _77  and  _78
REMARK   35  A    between atoms: _77  and  _80
REMARK   36  A    between atoms: _80  and  _81
REMARK   37  A    between atoms: _84  and  _86
REMARK   38  A    between atoms: _86  and  _87
REMARK   39  A    between atoms: _86  and  _89
REMARK   40  A    between atoms: _89  and  _90
REMARK   41  A    between atoms: _93  and  _95
REMARK   42  A    between atoms: _95  and  _96
REMARK   43  A    between atoms: _98  and  _100
REMARK   44  A    between atoms: _100  and  _101
REMARK   45  A    between atoms: _100  and  _103
REMARK   46  A    between atoms: _103  and  _104
REMARK   47  A    between atoms: _106  and  _108
REMARK   48  A    between atoms: _108  and  _109
REMARK   49  A    between atoms: _108  and  _111
REMARK   50  A    between atoms: _111  and  _112
REMARK   51  A    between atoms: _114  and  _116
REMARK   52  A    between atoms: _116  and  _117
REMARK   53  A    between atoms: _116  and  _119
REMARK   54  A    between atoms: _119  and  _120
REMARK   55  A    between atoms: _125  and  _127
REMARK   56  A    between atoms: _127  and  _128
REMARK   57  A    between atoms: _127  and  _130
REMARK   58  A    between atoms: _130  and  _131
REMARK   59  A    between atoms: _137  and  _139
REMARK   60  A    between atoms: _139  and  _140
REMARK   61  A    between atoms: _143  and  _145
REMARK   62  A    between atoms: _145  and  _146
REMARK   63  A    between atoms: _145  and  _148
REMARK   64  A    between atoms: _151  and  _153
REMARK   65  A    between atoms: _153  and  _154
REMARK   66  A    between atoms: _153  and  _156
REMARK   67  A    between atoms: _156  and  _157
REMARK   68  A    between atoms: _162  and  _163
REMARK   69  A    between atoms: _165  and  _167
REMARK   70  A    between atoms: _167  and  _168
REMARK   71  A    between atoms: _167  and  _170
REMARK   72  A    between atoms: _174  and  _175
REMARK   73  A    between atoms: _180  and  _182
REMARK   74  A    between atoms: _182  and  _183
REMARK   75  A    between atoms: _182  and  _185
REMARK   76  A    between atoms: _185  and  _186
REMARK   77  A    between atoms: _191  and  _192
REMARK   78  A    between atoms: _194  and  _196
REMARK   79  A    between atoms: _196  and  _197
REMARK   80  A    between atoms: _196  and  _199
REMARK   81  A    between atoms: _199  and  _200
REMARK   82  A    between atoms: _203  and  _205
REMARK   83  A    between atoms: _205  and  _206
REMARK   84  A    between atoms: _205  and  _208
REMARK   85  A    between atoms: _208  and  _209
REMARK   86  A    between atoms: _209  and  _210
REMARK   87  A    between atoms: _215  and  _217
REMARK   88  A    between atoms: _217  and  _218
REMARK   89  A    between atoms: _220  and  _222
REMARK   90  A    between atoms: _222  and  _223
REMARK   91  A    between atoms: _222  and  _225
REMARK   92  A    between atoms: _225  and  _226
REMARK   93  A    between atoms: _226  and  _227
REMARK   94  A    between atoms: _227  and  _228
REMARK   95  A    between atoms: _228  and  _229
REMARK   96  A    between atoms: _233  and  _235
REMARK   97  A    between atoms: _235  and  _236
REMARK   98  A    between atoms: _235  and  _238
REMARK   99  A    between atoms: _238  and  _239
REMARK  100  A    between atoms: _249  and  _251
REMARK  101  A    between atoms: _251  and  _252
REMARK  102  A    between atoms: _255  and  _257
REMARK  103  A    between atoms: _257  and  _258
REMARK  104  A    between atoms: _257  and  _260
REMARK  105  A    between atoms: _260  and  _261
REMARK  106  A    between atoms: _261  and  _262
REMARK  107  A    between atoms: _262  and  _263
REMARK  108  A    between atoms: _263  and  _264
REMARK  109  A    between atoms: _268  and  _270
REMARK  110  A    between atoms: _270  and  _271
REMARK  111  A    between atoms: _270  and  _273
REMARK  112  A    between atoms: _273  and  _274
REMARK  113  A    between atoms: _280  and  _282
REMARK  114  A    between atoms: _282  and  _283
REMARK  115  A    between atoms: _282  and  _285
REMARK  116  A    between atoms: _285  and  _286
REMARK  117  A    between atoms: _292  and  _294
REMARK  118  A    between atoms: _294  and  _295
REMARK  119  A    between atoms: _294  and  _297
REMARK  120  A    between atoms: _297  and  _298
REMARK  121  A    between atoms: _301  and  _303
REMARK  122  A    between atoms: _303  and  _304
REMARK  123  A    between atoms: _303  and  _306
REMARK  124  A    between atoms: _306  and  _307
REMARK  125  A    between atoms: _309  and  _311
REMARK  126  A    between atoms: _311  and  _312
REMARK  127  A    between atoms: _311  and  _314
REMARK  128  A    between atoms: _314  and  _315
REMARK  129  A    between atoms: _325  and  _327
REMARK  130  A    between atoms: _327  and  _328
REMARK  131  A    between atoms: _330  and  _332
REMARK  132  A    between atoms: _332  and  _333
REMARK  133  A    between atoms: _332  and  _335
REMARK  134  A    between atoms: _335  and  _336
REMARK  135  A    between atoms: _339  and  _341
REMARK  136  A    between atoms: _341  and  _342
REMARK  137  A    between atoms: _341  and  _344
REMARK  138  A    between atoms: _344  and  _345
REMARK  139  A    between atoms: _348  and  _350
REMARK  140  A    between atoms: _350  and  _351
REMARK  141  A    between atoms: _353  and  _355
REMARK  142  A    between atoms: _355  and  _356
REMARK  143  A    between atoms: _355  and  _358
REMARK  144  A    between atoms: _358  and  _359
REMARK  145  A    between atoms: _362  and  _364
REMARK  146  A    between atoms: _364  and  _365
REMARK  147  A    between atoms: _364  and  _367
REMARK  148  A    between atoms: _367  and  _368
REMARK  149  A    between atoms: _371  and  _373
REMARK  150  A    between atoms: _373  and  _374
REMARK  151  A    between atoms: _377  and  _379
REMARK  152  A    between atoms: _379  and  _380
REMARK  153  A    between atoms: _379  and  _382
REMARK  154  A    between atoms: _382  and  _383
REMARK  155  A    between atoms: _383  and  _384
REMARK  156  A    between atoms: _384  and  _385
REMARK  157  A    between atoms: _395  and  _396
REMARK  158  A    between atoms: _401  and  _403
REMARK  159  A    between atoms: _403  and  _404
REMARK  160  A    between atoms: _403  and  _406
REMARK  161  A    between atoms: _406  and  _407
REMARK  162  A    between atoms: _410  and  _412
REMARK  163  A    between atoms: _412  and  _413
REMARK  164  A    between atoms: _412  and  _415
REMARK  165  A    between atoms: _415  and  _416
REMARK  166  A    between atoms: _421  and  _422
REMARK  167  A    between atoms: _424  and  _426
REMARK  168  A    between atoms: _426  and  _427
REMARK  169  A    between atoms: _426  and  _429
REMARK  170  A    between atoms: _429  and  _430
REMARK  171  A    between atoms: _433  and  _435
REMARK  172  A    between atoms: _435  and  _436
REMARK  173  A    between atoms: _435  and  _438
REMARK  174  A    between atoms: _441  and  _443
REMARK  175  A    between atoms: _443  and  _444
REMARK  176  A    between atoms: _443  and  _446
REMARK  177  A    between atoms: _446  and  _447
REMARK  178  A    between atoms: _450  and  _452
REMARK  179  A    between atoms: _452  and  _453
REMARK  180  A    between atoms: _452  and  _455
REMARK  181  A    between atoms: _455  and  _456
REMARK  182  A    between atoms: _458  and  _460
REMARK  183  A    between atoms: _460  and  _461
REMARK  184  A    between atoms: _463  and  _465
REMARK  185  A    between atoms: _465  and  _466
REMARK  186  A    between atoms: _465  and  _468
REMARK  187  A    between atoms: _468  and  _469
REMARK  188  A    between atoms: _472  and  _474
REMARK  189  A    between atoms: _474  and  _475
REMARK  190  A    between atoms: _474  and  _477
REMARK  191  A    between atoms: _477  and  _478
REMARK  192  A    between atoms: _481  and  _483
REMARK  193  A    between atoms: _483  and  _484
REMARK  194  A    between atoms: _483  and  _486
REMARK  195  A    between atoms: _486  and  _487
REMARK  196  A    between atoms: _492  and  _494
REMARK  197  A    between atoms: _494  and  _495
REMARK  198  A    between atoms: _494  and  _497
REMARK  199  A    between atoms: _497  and  _498
REMARK  200  A    between atoms: _498  and  _499
REMARK  201  A    between atoms: _499  and  _500
REMARK  202  A    between atoms: _509  and  _511
REMARK  203  A    between atoms: _511  and  _512
REMARK  204  A    between atoms: _511  and  _514
REMARK  205  A    between atoms: _514  and  _515
REMARK  206  A    between atoms: _518  and  _520
REMARK  207  A    between atoms: _520  and  _521
REMARK  208  A    between atoms: _520  and  _523
REMARK  209  A    between atoms: _526  and  _528
REMARK  210  A    between atoms: _528  and  _529
REMARK  211  A    between atoms: _531  and  _533
REMARK  212  A    between atoms: _533  and  _534
REMARK  213  A    between atoms: _537  and  _539
REMARK  214  A    between atoms: _539  and  _540
REMARK  215  A    between atoms: _539  and  _542
REMARK                            x       y       z     vdW  Elec       q    Type
REMARK                         _______ _______ _______ _____ _____    ______ ____
ROOT
ATOM      1  O   HOH     1      13.800   2.705  15.854  0.00  0.00    +0.000 OA
ENDROOT
TORSDOF 0
REMARK  Name = ../refined-set-2016/4h3j/4h3j_pocket.pdb
REMARK  215 active torsions:
REMARK  status: ('A' for Active; 'I' for Inactive)
REMARK    1  A    between atoms: _1  and  _3
REMARK    2  A    between atoms: _3  and  _4
REMARK    3  A    between atoms: _3  and  _6
REMARK    4  A    between atoms: _6  and  _7
REMARK    5  A    between atoms: _7  and  _8
REMARK    6  A    between atoms: _8  and  _9
REMARK    7  A    between atoms: _9  and  _10
REMARK    8  A    between atoms: _14  and  _16
REMARK    9  A    between atoms: _16  and  _17
REMARK   10  A    between atoms: _16  and  _19
REMARK   11  A    between atoms: _19  and  _20
REMARK   12  A    between atoms: _22  and  _24
REMARK   13  A    between atoms: _24  and  _25
REMARK   14  A    between atoms: _27  and  _29
REMARK   15  A    between atoms: _29  and  _30
REMARK   16  A    between atoms: _29  and  _32
REMARK   17  A    between atoms: _32  and  _33
REMARK   18  A    between atoms: _33  and  _34
REMARK   19  A    between atoms: _39  and  _41
REMARK   20  A    between atoms: _41  and  _42
REMARK   21  A    between atoms: _44  and  _46
REMARK   22  A    between atoms: _46  and  _47
REMARK   23  A    between atoms: _46  and  _49
REMARK   24  A    between atoms: _49  and  _50
REMARK   25  A    between atoms: _55  and  _56
REMARK   26  A    between atoms: _58  and  _60
REMARK   27  A    between atoms: _60  and  _61
REMARK   28  A    between atoms: _60  and  _63
REMARK   29  A    between atoms: _63  and  _64
REMARK   30  A    between atoms: _67  and  _69
REMARK   31  A    between atoms: _69  and  _70
REMARK   32  A    between atoms: _69  and  _72
REMARK   33  A    between atoms: _75  and  _77
REMARK   34  A    between atoms: _77  and  _78
REMARK   35  A    between atoms: _77  and  _80
REMARK   36  A    between atoms: _80  and  _81
REMARK   37  A    between atoms: _84  and  _86
REMARK   38  A    between atoms: _86  and  _87
REMARK   39  A    between atoms: _86  and  _89
REMARK   40  A    between atoms: _89  and  _90
REMARK   41  A    between atoms: _93  and  _95
REMARK   42  A    between atoms: _95  and  _96
REMARK   43  A    between atoms: _98  and  _100
REMARK   44  A    between atoms: _100  and  _101
REMARK   45  A    between atoms: _100  and  _103
REMARK   46  A    between atoms: _103  and  _104
REMARK   47  A    between atoms: _106  and  _108
REMARK   48  A    between atoms: _108  and  _109
REMARK   49  A    between atoms: _108  and  _111
REMARK   50  A    between atoms: _111  and  _112
REMARK   51  A    between atoms: _114  and  _116
REMARK   52  A    between atoms: _116  and  _117
REMARK   53  A    between atoms: _116  and  _119
REMARK   54  A    between atoms: _119  and  _120
REMARK   55  A    between atoms: _125  and  _127
REMARK   56  A    between atoms: _127  and  _128
REMARK   57  A    between atoms: _127  and  _130
REMARK   58  A    between atoms: _130  and  _131
REMARK   59  A    between atoms: _137  and  _139
REMARK   60  A    between atoms: _139  and  _140
REMARK   61  A    between atoms: _143  and  _145
REMARK   62  A    between atoms: _145  and  _146
REMARK   63  A    between atoms: _145  and  _148
REMARK   64  A    between atoms: _151  and  _153
REMARK   65  A    between atoms: _153  and  _154
REMARK   66  A    between atoms: _153  and  _156
REMARK   67  A    between atoms: _156  and  _157
REMARK   68  A    between atoms: _162  and  _163
REMARK   69  A    between atoms: _165  and  _167
REMARK   70  A    between atoms: _167  and  _168
REMARK   71  A    between atoms: _167  and  _170
REMARK   72  A    between atoms: _174  and  _175
REMARK   73  A    between atoms: _180  and  _182
REMARK   74  A    between atoms: _182  and  _183
REMARK   75  A    between atoms: _182  and  _185
REMARK   76  A    between atoms: _185  and  _186
REMARK   77  A    between atoms: _191  and  _192
REMARK   78  A    between atoms: _194  and  _196
REMARK   79  A    between atoms: _196  and  _197
REMARK   80  A    between atoms: _196  and  _199
REMARK   81  A    between atoms: _199  and  _200
REMARK   82  A    between atoms: _203  and  _205
REMARK   83  A    between atoms: _205  and  _206
REMARK   84  A    between atoms: _205  and  _208
REMARK   85  A    between atoms: _208  and  _209
REMARK   86  A    between atoms: _209  and  _210
REMARK   87  A    between atoms: _215  and  _217
REMARK   88  A    between atoms: _217  and  _218
REMARK   89  A    between atoms: _220  and  _222
REMARK   90  A    between atoms: _222  and  _223
REMARK   91  A    between atoms: _222  and  _225
REMARK   92  A    between atoms: _225  and  _226
REMARK   93  A    between atoms: _226  and  _227
REMARK   94  A    between atoms: _227  and  _228
REMARK   95  A    between atoms: _228  and  _229
REMARK   96  A    between atoms: _233  and  _235
REMARK   97  A    between atoms: _235  and  _236
REMARK   98  A    between atoms: _235  and  _238
REMARK   99  A    between atoms: _238  and  _239
REMARK  100  A    between atoms: _249  and  _251
REMARK  101  A    between atoms: _251  and  _252
REMARK  102  A    between atoms: _255  and  _257
REMARK  103  A    between atoms: _257  and  _258
REMARK  104  A    between atoms: _257  and  _260
REMARK  105  A    between atoms: _260  and  _261
REMARK  106  A    between atoms: _261  and  _262
REMARK  107  A    between atoms: _262  and  _263
REMARK  108  A    between atoms: _263  and  _264
REMARK  109  A    between atoms: _268  and  _270
REMARK  110  A    between atoms: _270  and  _271
REMARK  111  A    between atoms: _270  and  _273
REMARK  112  A    between atoms: _273  and  _274
REMARK  113  A    between atoms: _280  and  _282
REMARK  114  A    between atoms: _282  and  _283
REMARK  115  A    between atoms: _282  and  _285
REMARK  116  A    between atoms: _285  and  _286
REMARK  117  A    between atoms: _292  and  _294
REMARK  118  A    between atoms: _294  and  _295
REMARK  119  A    between atoms: _294  and  _297
REMARK  120  A    between atoms: _297  and  _298
REMARK  121  A    between atoms: _301  and  _303
REMARK  122  A    between atoms: _303  and  _304
REMARK  123  A    between atoms: _303  and  _306
REMARK  124  A    between atoms: _306  and  _307
REMARK  125  A    between atoms: _309  and  _311
REMARK  126  A    between atoms: _311  and  _312
REMARK  127  A    between atoms: _311  and  _314
REMARK  128  A    between atoms: _314  and  _315
REMARK  129  A    between atoms: _325  and  _327
REMARK  130  A    between atoms: _327  and  _328
REMARK  131  A    between atoms: _330  and  _332
REMARK  132  A    between atoms: _332  and  _333
REMARK  133  A    between atoms: _332  and  _335
REMARK  134  A    between atoms: _335  and  _336
REMARK  135  A    between atoms: _339  and  _341
REMARK  136  A    between atoms: _341  and  _342
REMARK  137  A    between atoms: _341  and  _344
REMARK  138  A    between atoms: _344  and  _345
REMARK  139  A    between atoms: _348  and  _350
REMARK  140  A    between atoms: _350  and  _351
REMARK  141  A    between atoms: _353  and  _355
REMARK  142  A    between atoms: _355  and  _356
REMARK  143  A    between atoms: _355  and  _358
REMARK  144  A    between atoms: _358  and  _359
REMARK  145  A    between atoms: _362  and  _364
REMARK  146  A    between atoms: _364  and  _365
REMARK  147  A    between atoms: _364  and  _367
REMARK  148  A    between atoms: _367  and  _368
REMARK  149  A    between atoms: _371  and  _373
REMARK  150  A    between atoms: _373  and  _374
REMARK  151  A    between atoms: _377  and  _379
REMARK  152  A    between atoms: _379  and  _380
REMARK  153  A    between atoms: _379  and  _382
REMARK  154  A    between atoms: _382  and  _383
REMARK  155  A    between atoms: _383  and  _384
REMARK  156  A    between atoms: _384  and  _385
REMARK  157  A    between atoms: _395  and  _396
REMARK  158  A    between atoms: _401  and  _403
REMARK  159  A    between atoms: _403  and  _404
REMARK  160  A    between atoms: _403  and  _406
REMARK  161  A    between atoms: _406  and  _407
REMARK  162  A    between atoms: _410  and  _412
REMARK  163  A    between atoms: _412  and  _413
REMARK  164  A    between atoms: _412  and  _415
REMARK  165  A    between atoms: _415  and  _416
REMARK  166  A    between atoms: _421  and  _422
REMARK  167  A    between atoms: _424  and  _426
REMARK  168  A    between atoms: _426  and  _427
REMARK  169  A    between atoms: _426  and  _429
REMARK  170  A    between atoms: _429  and  _430
REMARK  171  A    between atoms: _433  and  _435
REMARK  172  A    between atoms: _435  and  _436
REMARK  173  A    between atoms: _435  and  _438
REMARK  174  A    between atoms: _441  and  _443
REMARK  175  A    between atoms: _443  and  _444
REMARK  176  A    between atoms: _443  and  _446
REMARK  177  A    between atoms: _446  and  _447
REMARK  178  A    between atoms: _450  and  _452
REMARK  179  A    between atoms: _452  and  _453
REMARK  180  A    between atoms: _452  and  _455
REMARK  181  A    between atoms: _455  and  _456
REMARK  182  A    between atoms: _458  and  _460
REMARK  183  A    between atoms: _460  and  _461
REMARK  184  A    between atoms: _463  and  _465
REMARK  185  A    between atoms: _465  and  _466
REMARK  186  A    between atoms: _465  and  _468
REMARK  187  A    between atoms: _468  and  _469
REMARK  188  A    between atoms: _472  and  _474
REMARK  189  A    between atoms: _474  and  _475
REMARK  190  A    between atoms: _474  and  _477
REMARK  191  A    between atoms: _477  and  _478
REMARK  192  A    between atoms: _481  and  _483
REMARK  193  A    between atoms: _483  and  _484
REMARK  194  A    between atoms: _483  and  _486
REMARK  195  A    between atoms: _486  and  _487
REMARK  196  A    between atoms: _492  and  _494
REMARK  197  A    between atoms: _494  and  _495
REMARK  198  A    between atoms: _494  and  _497
REMARK  199  A    between atoms: _497  and  _498
REMARK  200  A    between atoms: _498  and  _499
REMARK  201  A    between atoms: _499  and  _500
REMARK  202  A    between atoms: _509  and  _511
REMARK  203  A    between atoms: _511  and  _512
REMARK  204  A    between atoms: _511  and  _514
REMARK  205  A    between atoms: _514  and  _515
REMARK  206  A    between atoms: _518  and  _520
REMARK  207  A    between atoms: _520  and  _521
REMARK  208  A    between atoms: _520  and  _523
REMARK  209  A    between atoms: _526  and  _528
REMARK  210  A    between atoms: _528  and  _529
REMARK  211  A    between atoms: _531  and  _533
REMARK  212  A    between atoms: _533  and  _534
REMARK  213  A    between atoms: _537  and  _539
REMARK  214  A    between atoms: _539  and  _540
REMARK  215  A    between atoms: _539  and  _542
REMARK                            x       y       z     vdW  Elec       q    Type
REMARK                         _______ _______ _______ _____ _____    ______ ____
ROOT
ATOM      1  O   HOH     1      12.530   1.339  19.827  0.00  0.00    +0.000 OA
ENDROOT
TORSDOF 0
REMARK  Name = ../refined-set-2016/4h3j/4h3j_pocket.pdb
REMARK  215 active torsions:
REMARK  status: ('A' for Active; 'I' for Inactive)
REMARK    1  A    between atoms: _1  and  _3
REMARK    2  A    between atoms: _3  and  _4
REMARK    3  A    between atoms: _3  and  _6
REMARK    4  A    between atoms: _6  and  _7
REMARK    5  A    between atoms: _7  and  _8
REMARK    6  A    between atoms: _8  and  _9
REMARK    7  A    between atoms: _9  and  _10
REMARK    8  A    between atoms: _14  and  _16
REMARK    9  A    between atoms: _16  and  _17
REMARK   10  A    between atoms: _16  and  _19
REMARK   11  A    between atoms: _19  and  _20
REMARK   12  A    between atoms: _22  and  _24
REMARK   13  A    between atoms: _24  and  _25
REMARK   14  A    between atoms: _27  and  _29
REMARK   15  A    between atoms: _29  and  _30
REMARK   16  A    between atoms: _29  and  _32
REMARK   17  A    between atoms: _32  and  _33
REMARK   18  A    between atoms: _33  and  _34
REMARK   19  A    between atoms: _39  and  _41
REMARK   20  A    between atoms: _41  and  _42
REMARK   21  A    between atoms: _44  and  _46
REMARK   22  A    between atoms: _46  and  _47
REMARK   23  A    between atoms: _46  and  _49
REMARK   24  A    between atoms: _49  and  _50
REMARK   25  A    between atoms: _55  and  _56
REMARK   26  A    between atoms: _58  and  _60
REMARK   27  A    between atoms: _60  and  _61
REMARK   28  A    between atoms: _60  and  _63
REMARK   29  A    between atoms: _63  and  _64
REMARK   30  A    between atoms: _67  and  _69
REMARK   31  A    between atoms: _69  and  _70
REMARK   32  A    between atoms: _69  and  _72
REMARK   33  A    between atoms: _75  and  _77
REMARK   34  A    between atoms: _77  and  _78
REMARK   35  A    between atoms: _77  and  _80
REMARK   36  A    between atoms: _80  and  _81
REMARK   37  A    between atoms: _84  and  _86
REMARK   38  A    between atoms: _86  and  _87
REMARK   39  A    between atoms: _86  and  _89
REMARK   40  A    between atoms: _89  and  _90
REMARK   41  A    between atoms: _93  and  _95
REMARK   42  A    between atoms: _95  and  _96
REMARK   43  A    between atoms: _98  and  _100
REMARK   44  A    between atoms: _100  and  _101
REMARK   45  A    between atoms: _100  and  _103
REMARK   46  A    between atoms: _103  and  _104
REMARK   47  A    between atoms: _106  and  _108
REMARK   48  A    between atoms: _108  and  _109
REMARK   49  A    between atoms: _108  and  _111
REMARK   50  A    between atoms: _111  and  _112
REMARK   51  A    between atoms: _114  and  _116
REMARK   52  A    between atoms: _116  and  _117
REMARK   53  A    between atoms: _116  and  _119
REMARK   54  A    between atoms: _119  and  _120
REMARK   55  A    between atoms: _125  and  _127
REMARK   56  A    between atoms: _127  and  _128
REMARK   57  A    between atoms: _127  and  _130
REMARK   58  A    between atoms: _130  and  _131
REMARK   59  A    between atoms: _137  and  _139
REMARK   60  A    between atoms: _139  and  _140
REMARK   61  A    between atoms: _143  and  _145
REMARK   62  A    between atoms: _145  and  _146
REMARK   63  A    between atoms: _145  and  _148
REMARK   64  A    between atoms: _151  and  _153
REMARK   65  A    between atoms: _153  and  _154
REMARK   66  A    between atoms: _153  and  _156
REMARK   67  A    between atoms: _156  and  _157
REMARK   68  A    between atoms: _162  and  _163
REMARK   69  A    between atoms: _165  and  _167
REMARK   70  A    between atoms: _167  and  _168
REMARK   71  A    between atoms: _167  and  _170
REMARK   72  A    between atoms: _174  and  _175
REMARK   73  A    between atoms: _180  and  _182
REMARK   74  A    between atoms: _182  and  _183
REMARK   75  A    between atoms: _182  and  _185
REMARK   76  A    between atoms: _185  and  _186
REMARK   77  A    between atoms: _191  and  _192
REMARK   78  A    between atoms: _194  and  _196
REMARK   79  A    between atoms: _196  and  _197
REMARK   80  A    between atoms: _196  and  _199
REMARK   81  A    between atoms: _199  and  _200
REMARK   82  A    between atoms: _203  and  _205
REMARK   83  A    between atoms: _205  and  _206
REMARK   84  A    between atoms: _205  and  _208
REMARK   85  A    between atoms: _208  and  _209
REMARK   86  A    between atoms: _209  and  _210
REMARK   87  A    between atoms: _215  and  _217
REMARK   88  A    between atoms: _217  and  _218
REMARK   89  A    between atoms: _220  and  _222
REMARK   90  A    between atoms: _222  and  _223
REMARK   91  A    between atoms: _222  and  _225
REMARK   92  A    between atoms: _225  and  _226
REMARK   93  A    between atoms: _226  and  _227
REMARK   94  A    between atoms: _227  and  _228
REMARK   95  A    between atoms: _228  and  _229
REMARK   96  A    between atoms: _233  and  _235
REMARK   97  A    between atoms: _235  and  _236
REMARK   98  A    between atoms: _235  and  _238
REMARK   99  A    between atoms: _238  and  _239
REMARK  100  A    between atoms: _249  and  _251
REMARK  101  A    between atoms: _251  and  _252
REMARK  102  A    between atoms: _255  and  _257
REMARK  103  A    between atoms: _257  and  _258
REMARK  104  A    between atoms: _257  and  _260
REMARK  105  A    between atoms: _260  and  _261
REMARK  106  A    between atoms: _261  and  _262
REMARK  107  A    between atoms: _262  and  _263
REMARK  108  A    between atoms: _263  and  _264
REMARK  109  A    between atoms: _268  and  _270
REMARK  110  A    between atoms: _270  and  _271
REMARK  111  A    between atoms: _270  and  _273
REMARK  112  A    between atoms: _273  and  _274
REMARK  113  A    between atoms: _280  and  _282
REMARK  114  A    between atoms: _282  and  _283
REMARK  115  A    between atoms: _282  and  _285
REMARK  116  A    between atoms: _285  and  _286
REMARK  117  A    between atoms: _292  and  _294
REMARK  118  A    between atoms: _294  and  _295
REMARK  119  A    between atoms: _294  and  _297
REMARK  120  A    between atoms: _297  and  _298
REMARK  121  A    between atoms: _301  and  _303
REMARK  122  A    between atoms: _303  and  _304
REMARK  123  A    between atoms: _303  and  _306
REMARK  124  A    between atoms: _306  and  _307
REMARK  125  A    between atoms: _309  and  _311
REMARK  126  A    between atoms: _311  and  _312
REMARK  127  A    between atoms: _311  and  _314
REMARK  128  A    between atoms: _314  and  _315
REMARK  129  A    between atoms: _325  and  _327
REMARK  130  A    between atoms: _327  and  _328
REMARK  131  A    between atoms: _330  and  _332
REMARK  132  A    between atoms: _332  and  _333
REMARK  133  A    between atoms: _332  and  _335
REMARK  134  A    between atoms: _335  and  _336
REMARK  135  A    between atoms: _339  and  _341
REMARK  136  A    between atoms: _341  and  _342
REMARK  137  A    between atoms: _341  and  _344
REMARK  138  A    between atoms: _344  and  _345
REMARK  139  A    between atoms: _348  and  _350
REMARK  140  A    between atoms: _350  and  _351
REMARK  141  A    between atoms: _353  and  _355
REMARK  142  A    between atoms: _355  and  _356
REMARK  143  A    between atoms: _355  and  _358
REMARK  144  A    between atoms: _358  and  _359
REMARK  145  A    between atoms: _362  and  _364
REMARK  146  A    between atoms: _364  and  _365
REMARK  147  A    between atoms: _364  and  _367
REMARK  148  A    between atoms: _367  and  _368
REMARK  149  A    between atoms: _371  and  _373
REMARK  150  A    between atoms: _373  and  _374
REMARK  151  A    between atoms: _377  and  _379
REMARK  152  A    between atoms: _379  and  _380
REMARK  153  A    between atoms: _379  and  _382
REMARK  154  A    between atoms: _382  and  _383
REMARK  155  A    between atoms: _383  and  _384
REMARK  156  A    between atoms: _384  and  _385
REMARK  157  A    between atoms: _395  and  _396
REMARK  158  A    between atoms: _401  and  _403
REMARK  159  A    between atoms: _403  and  _404
REMARK  160  A    between atoms: _403  and  _406
REMARK  161  A    between atoms: _406  and  _407
REMARK  162  A    between atoms: _410  and  _412
REMARK  163  A    between atoms: _412  and  _413
REMARK  164  A    between atoms: _412  and  _415
REMARK  165  A    between atoms: _415  and  _416
REMARK  166  A    between atoms: _421  and  _422
REMARK  167  A    between atoms: _424  and  _426
REMARK  168  A    between atoms: _426  and  _427
REMARK  169  A    between atoms: _426  and  _429
REMARK  170  A    between atoms: _429  and  _430
REMARK  171  A    between atoms: _433  and  _435
REMARK  172  A    between atoms: _435  and  _436
REMARK  173  A    between atoms: _435  and  _438
REMARK  174  A    between atoms: _441  and  _443
REMARK  175  A    between atoms: _443  and  _444
REMARK  176  A    between atoms: _443  and  _446
REMARK  177  A    between atoms: _446  and  _447
REMARK  178  A    between atoms: _450  and  _452
REMARK  179  A    between atoms: _452  and  _453
REMARK  180  A    between atoms: _452  and  _455
REMARK  181  A    between atoms: _455  and  _456
REMARK  182  A    between atoms: _458  and  _460
REMARK  183  A    between atoms: _460  and  _461
REMARK  184  A    between atoms: _463  and  _465
REMARK  185  A    between atoms: _465  and  _466
REMARK  186  A    between atoms: _465  and  _468
REMARK  187  A    between atoms: _468  and  _469
REMARK  188  A    between atoms: _472  and  _474
REMARK  189  A    between atoms: _474  and  _475
REMARK  190  A    between atoms: _474  and  _477
REMARK  191  A    between atoms: _477  and  _478
REMARK  192  A    between atoms: _481  and  _483
REMARK  193  A    between atoms: _483  and  _484
REMARK  194  A    between atoms: _483  and  _486
REMARK  195  A    between atoms: _486  and  _487
REMARK  196  A    between atoms: _492  and  _494
REMARK  197  A    between atoms: _494  and  _495
REMARK  198  A    between atoms: _494  and  _497
REMARK  199  A    between atoms: _497  and  _498
REMARK  200  A    between atoms: _498  and  _499
REMARK  201  A    between atoms: _499  and  _500
REMARK  202  A    between atoms: _509  and  _511
REMARK  203  A    between atoms: _511  and  _512
REMARK  204  A    between atoms: _511  and  _514
REMARK  205  A    between atoms: _514  and  _515
REMARK  206  A    between atoms: _518  and  _520
REMARK  207  A    between atoms: _520  and  _521
REMARK  208  A    between atoms: _520  and  _523
REMARK  209  A    between atoms: _526  and  _528
REMARK  210  A    between atoms: _528  and  _529
REMARK  211  A    between atoms: _531  and  _533
REMARK  212  A    between atoms: _533  and  _534
REMARK  213  A    between atoms: _537  and  _539
REMARK  214  A    between atoms: _539  and  _540
REMARK  215  A    between atoms: _539  and  _542
REMARK                            x       y       z     vdW  Elec       q    Type
REMARK                         _______ _______ _______ _____ _____    ______ ____
ROOT
ATOM      1  O   HOH     1      29.460  15.050  27.101  0.00  0.00    +0.000 OA
ENDROOT
TORSDOF 0
REMARK  Name = ../refined-set-2016/4h3j/4h3j_pocket.pdb
REMARK  215 active torsions:
REMARK  status: ('A' for Active; 'I' for Inactive)
REMARK    1  A    between atoms: _1  and  _3
REMARK    2  A    between atoms: _3  and  _4
REMARK    3  A    between atoms: _3  and  _6
REMARK    4  A    between atoms: _6  and  _7
REMARK    5  A    between atoms: _7  and  _8
REMARK    6  A    between atoms: _8  and  _9
REMARK    7  A    between atoms: _9  and  _10
REMARK    8  A    between atoms: _14  and  _16
REMARK    9  A    between atoms: _16  and  _17
REMARK   10  A    between atoms: _16  and  _19
REMARK   11  A    between atoms: _19  and  _20
REMARK   12  A    between atoms: _22  and  _24
REMARK   13  A    between atoms: _24  and  _25
REMARK   14  A    between atoms: _27  and  _29
REMARK   15  A    between atoms: _29  and  _30
REMARK   16  A    between atoms: _29  and  _32
REMARK   17  A    between atoms: _32  and  _33
REMARK   18  A    between atoms: _33  and  _34
REMARK   19  A    between atoms: _39  and  _41
REMARK   20  A    between atoms: _41  and  _42
REMARK   21  A    between atoms: _44  and  _46
REMARK   22  A    between atoms: _46  and  _47
REMARK   23  A    between atoms: _46  and  _49
REMARK   24  A    between atoms: _49  and  _50
REMARK   25  A    between atoms: _55  and  _56
REMARK   26  A    between atoms: _58  and  _60
REMARK   27  A    between atoms: _60  and  _61
REMARK   28  A    between atoms: _60  and  _63
REMARK   29  A    between atoms: _63  and  _64
REMARK   30  A    between atoms: _67  and  _69
REMARK   31  A    between atoms: _69  and  _70
REMARK   32  A    between atoms: _69  and  _72
REMARK   33  A    between atoms: _75  and  _77
REMARK   34  A    between atoms: _77  and  _78
REMARK   35  A    between atoms: _77  and  _80
REMARK   36  A    between atoms: _80  and  _81
REMARK   37  A    between atoms: _84  and  _86
REMARK   38  A    between atoms: _86  and  _87
REMARK   39  A    between atoms: _86  and  _89
REMARK   40  A    between atoms: _89  and  _90
REMARK   41  A    between atoms: _93  and  _95
REMARK   42  A    between atoms: _95  and  _96
REMARK   43  A    between atoms: _98  and  _100
REMARK   44  A    between atoms: _100  and  _101
REMARK   45  A    between atoms: _100  and  _103
REMARK   46  A    between atoms: _103  and  _104
REMARK   47  A    between atoms: _106  and  _108
REMARK   48  A    between atoms: _108  and  _109
REMARK   49  A    between atoms: _108  and  _111
REMARK   50  A    between atoms: _111  and  _112
REMARK   51  A    between atoms: _114  and  _116
REMARK   52  A    between atoms: _116  and  _117
REMARK   53  A    between atoms: _116  and  _119
REMARK   54  A    between atoms: _119  and  _120
REMARK   55  A    between atoms: _125  and  _127
REMARK   56  A    between atoms: _127  and  _128
REMARK   57  A    between atoms: _127  and  _130
REMARK   58  A    between atoms: _130  and  _131
REMARK   59  A    between atoms: _137  and  _139
REMARK   60  A    between atoms: _139  and  _140
REMARK   61  A    between atoms: _143  and  _145
REMARK   62  A    between atoms: _145  and  _146
REMARK   63  A    between atoms: _145  and  _148
REMARK   64  A    between atoms: _151  and  _153
REMARK   65  A    between atoms: _153  and  _154
REMARK   66  A    between atoms: _153  and  _156
REMARK   67  A    between atoms: _156  and  _157
REMARK   68  A    between atoms: _162  and  _163
REMARK   69  A    between atoms: _165  and  _167
REMARK   70  A    between atoms: _167  and  _168
REMARK   71  A    between atoms: _167  and  _170
REMARK   72  A    between atoms: _174  and  _175
REMARK   73  A    between atoms: _180  and  _182
REMARK   74  A    between atoms: _182  and  _183
REMARK   75  A    between atoms: _182  and  _185
REMARK   76  A    between atoms: _185  and  _186
REMARK   77  A    between atoms: _191  and  _192
REMARK   78  A    between atoms: _194  and  _196
REMARK   79  A    between atoms: _196  and  _197
REMARK   80  A    between atoms: _196  and  _199
REMARK   81  A    between atoms: _199  and  _200
REMARK   82  A    between atoms: _203  and  _205
REMARK   83  A    between atoms: _205  and  _206
REMARK   84  A    between atoms: _205  and  _208
REMARK   85  A    between atoms: _208  and  _209
REMARK   86  A    between atoms: _209  and  _210
REMARK   87  A    between atoms: _215  and  _217
REMARK   88  A    between atoms: _217  and  _218
REMARK   89  A    between atoms: _220  and  _222
REMARK   90  A    between atoms: _222  and  _223
REMARK   91  A    between atoms: _222  and  _225
REMARK   92  A    between atoms: _225  and  _226
REMARK   93  A    between atoms: _226  and  _227
REMARK   94  A    between atoms: _227  and  _228
REMARK   95  A    between atoms: _228  and  _229
REMARK   96  A    between atoms: _233  and  _235
REMARK   97  A    between atoms: _235  and  _236
REMARK   98  A    between atoms: _235  and  _238
REMARK   99  A    between atoms: _238  and  _239
REMARK  100  A    between atoms: _249  and  _251
REMARK  101  A    between atoms: _251  and  _252
REMARK  102  A    between atoms: _255  and  _257
REMARK  103  A    between atoms: _257  and  _258
REMARK  104  A    between atoms: _257  and  _260
REMARK  105  A    between atoms: _260  and  _261
REMARK  106  A    between atoms: _261  and  _262
REMARK  107  A    between atoms: _262  and  _263
REMARK  108  A    between atoms: _263  and  _264
REMARK  109  A    between atoms: _268  and  _270
REMARK  110  A    between atoms: _270  and  _271
REMARK  111  A    between atoms: _270  and  _273
REMARK  112  A    between atoms: _273  and  _274
REMARK  113  A    between atoms: _280  and  _282
REMARK  114  A    between atoms: _282  and  _283
REMARK  115  A    between atoms: _282  and  _285
REMARK  116  A    between atoms: _285  and  _286
REMARK  117  A    between atoms: _292  and  _294
REMARK  118  A    between atoms: _294  and  _295
REMARK  119  A    between atoms: _294  and  _297
REMARK  120  A    between atoms: _297  and  _298
REMARK  121  A    between atoms: _301  and  _303
REMARK  122  A    between atoms: _303  and  _304
REMARK  123  A    between atoms: _303  and  _306
REMARK  124  A    between atoms: _306  and  _307
REMARK  125  A    between atoms: _309  and  _311
REMARK  126  A    between atoms: _311  and  _312
REMARK  127  A    between atoms: _311  and  _314
REMARK  128  A    between atoms: _314  and  _315
REMARK  129  A    between atoms: _325  and  _327
REMARK  130  A    between atoms: _327  and  _328
REMARK  131  A    between atoms: _330  and  _332
REMARK  132  A    between atoms: _332  and  _333
REMARK  133  A    between atoms: _332  and  _335
REMARK  134  A    between atoms: _335  and  _336
REMARK  135  A    between atoms: _339  and  _341
REMARK  136  A    between atoms: _341  and  _342
REMARK  137  A    between atoms: _341  and  _344
REMARK  138  A    between atoms: _344  and  _345
REMARK  139  A    between atoms: _348  and  _350
REMARK  140  A    between atoms: _350  and  _351
REMARK  141  A    between atoms: _353  and  _355
REMARK  142  A    between atoms: _355  and  _356
REMARK  143  A    between atoms: _355  and  _358
REMARK  144  A    between atoms: _358  and  _359
REMARK  145  A    between atoms: _362  and  _364
REMARK  146  A    between atoms: _364  and  _365
REMARK  147  A    between atoms: _364  and  _367
REMARK  148  A    between atoms: _367  and  _368
REMARK  149  A    between atoms: _371  and  _373
REMARK  150  A    between atoms: _373  and  _374
REMARK  151  A    between atoms: _377  and  _379
REMARK  152  A    between atoms: _379  and  _380
REMARK  153  A    between atoms: _379  and  _382
REMARK  154  A    between atoms: _382  and  _383
REMARK  155  A    between atoms: _383  and  _384
REMARK  156  A    between atoms: _384  and  _385
REMARK  157  A    between atoms: _395  and  _396
REMARK  158  A    between atoms: _401  and  _403
REMARK  159  A    between atoms: _403  and  _404
REMARK  160  A    between atoms: _403  and  _406
REMARK  161  A    between atoms: _406  and  _407
REMARK  162  A    between atoms: _410  and  _412
REMARK  163  A    between atoms: _412  and  _413
REMARK  164  A    between atoms: _412  and  _415
REMARK  165  A    between atoms: _415  and  _416
REMARK  166  A    between atoms: _421  and  _422
REMARK  167  A    between atoms: _424  and  _426
REMARK  168  A    between atoms: _426  and  _427
REMARK  169  A    between atoms: _426  and  _429
REMARK  170  A    between atoms: _429  and  _430
REMARK  171  A    between atoms: _433  and  _435
REMARK  172  A    between atoms: _435  and  _436
REMARK  173  A    between atoms: _435  and  _438
REMARK  174  A    between atoms: _441  and  _443
REMARK  175  A    between atoms: _443  and  _444
REMARK  176  A    between atoms: _443  and  _446
REMARK  177  A    between atoms: _446  and  _447
REMARK  178  A    between atoms: _450  and  _452
REMARK  179  A    between atoms: _452  and  _453
REMARK  180  A    between atoms: _452  and  _455
REMARK  181  A    between atoms: _455  and  _456
REMARK  182  A    between atoms: _458  and  _460
REMARK  183  A    between atoms: _460  and  _461
REMARK  184  A    between atoms: _463  and  _465
REMARK  185  A    between atoms: _465  and  _466
REMARK  186  A    between atoms: _465  and  _468
REMARK  187  A    between atoms: _468  and  _469
REMARK  188  A    between atoms: _472  and  _474
REMARK  189  A    between atoms: _474  and  _475
REMARK  190  A    between atoms: _474  and  _477
REMARK  191  A    between atoms: _477  and  _478
REMARK  192  A    between atoms: _481  and  _483
REMARK  193  A    between atoms: _483  and  _484
REMARK  194  A    between atoms: _483  and  _486
REMARK  195  A    between atoms: _486  and  _487
REMARK  196  A    between atoms: _492  and  _494
REMARK  197  A    between atoms: _494  and  _495
REMARK  198  A    between atoms: _494  and  _497
REMARK  199  A    between atoms: _497  and  _498
REMARK  200  A    between atoms: _498  and  _499
REMARK  201  A    between atoms: _499  and  _500
REMARK  202  A    between atoms: _509  and  _511
REMARK  203  A    between atoms: _511  and  _512
REMARK  204  A    between atoms: _511  and  _514
REMARK  205  A    between atoms: _514  and  _515
REMARK  206  A    between atoms: _518  and  _520
REMARK  207  A    between atoms: _520  and  _521
REMARK  208  A    between atoms: _520  and  _523
REMARK  209  A    between atoms: _526  and  _528
REMARK  210  A    between atoms: _528  and  _529
REMARK  211  A    between atoms: _531  and  _533
REMARK  212  A    between atoms: _533  and  _534
REMARK  213  A    between atoms: _537  and  _539
REMARK  214  A    between atoms: _539  and  _540
REMARK  215  A    between atoms: _539  and  _542
REMARK                            x       y       z     vdW  Elec       q    Type
REMARK                         _______ _______ _______ _____ _____    ______ ____
ROOT
ATOM      1  O   HOH     1      20.597   5.290  30.496  0.00  0.00    +0.000 OA
ENDROOT
TORSDOF 0
REMARK  Name = ../refined-set-2016/4h3j/4h3j_pocket.pdb
REMARK  215 active torsions:
REMARK  status: ('A' for Active; 'I' for Inactive)
REMARK    1  A    between atoms: _1  and  _3
REMARK    2  A    between atoms: _3  and  _4
REMARK    3  A    between atoms: _3  and  _6
REMARK    4  A    between atoms: _6  and  _7
REMARK    5  A    between atoms: _7  and  _8
REMARK    6  A    between atoms: _8  and  _9
REMARK    7  A    between atoms: _9  and  _10
REMARK    8  A    between atoms: _14  and  _16
REMARK    9  A    between atoms: _16  and  _17
REMARK   10  A    between atoms: _16  and  _19
REMARK   11  A    between atoms: _19  and  _20
REMARK   12  A    between atoms: _22  and  _24
REMARK   13  A    between atoms: _24  and  _25
REMARK   14  A    between atoms: _27  and  _29
REMARK   15  A    between atoms: _29  and  _30
REMARK   16  A    between atoms: _29  and  _32
REMARK   17  A    between atoms: _32  and  _33
REMARK   18  A    between atoms: _33  and  _34
REMARK   19  A    between atoms: _39  and  _41
REMARK   20  A    between atoms: _41  and  _42
REMARK   21  A    between atoms: _44  and  _46
REMARK   22  A    between atoms: _46  and  _47
REMARK   23  A    between atoms: _46  and  _49
REMARK   24  A    between atoms: _49  and  _50
REMARK   25  A    between atoms: _55  and  _56
REMARK   26  A    between atoms: _58  and  _60
REMARK   27  A    between atoms: _60  and  _61
REMARK   28  A    between atoms: _60  and  _63
REMARK   29  A    between atoms: _63  and  _64
REMARK   30  A    between atoms: _67  and  _69
REMARK   31  A    between atoms: _69  and  _70
REMARK   32  A    between atoms: _69  and  _72
REMARK   33  A    between atoms: _75  and  _77
REMARK   34  A    between atoms: _77  and  _78
REMARK   35  A    between atoms: _77  and  _80
REMARK   36  A    between atoms: _80  and  _81
REMARK   37  A    between atoms: _84  and  _86
REMARK   38  A    between atoms: _86  and  _87
REMARK   39  A    between atoms: _86  and  _89
REMARK   40  A    between atoms: _89  and  _90
REMARK   41  A    between atoms: _93  and  _95
REMARK   42  A    between atoms: _95  and  _96
REMARK   43  A    between atoms: _98  and  _100
REMARK   44  A    between atoms: _100  and  _101
REMARK   45  A    between atoms: _100  and  _103
REMARK   46  A    between atoms: _103  and  _104
REMARK   47  A    between atoms: _106  and  _108
REMARK   48  A    between atoms: _108  and  _109
REMARK   49  A    between atoms: _108  and  _111
REMARK   50  A    between atoms: _111  and  _112
REMARK   51  A    between atoms: _114  and  _116
REMARK   52  A    between atoms: _116  and  _117
REMARK   53  A    between atoms: _116  and  _119
REMARK   54  A    between atoms: _119  and  _120
REMARK   55  A    between atoms: _125  and  _127
REMARK   56  A    between atoms: _127  and  _128
REMARK   57  A    between atoms: _127  and  _130
REMARK   58  A    between atoms: _130  and  _131
REMARK   59  A    between atoms: _137  and  _139
REMARK   60  A    between atoms: _139  and  _140
REMARK   61  A    between atoms: _143  and  _145
REMARK   62  A    between atoms: _145  and  _146
REMARK   63  A    between atoms: _145  and  _148
REMARK   64  A    between atoms: _151  and  _153
REMARK   65  A    between atoms: _153  and  _154
REMARK   66  A    between atoms: _153  and  _156
REMARK   67  A    between atoms: _156  and  _157
REMARK   68  A    between atoms: _162  and  _163
REMARK   69  A    between atoms: _165  and  _167
REMARK   70  A    between atoms: _167  and  _168
REMARK   71  A    between atoms: _167  and  _170
REMARK   72  A    between atoms: _174  and  _175
REMARK   73  A    between atoms: _180  and  _182
REMARK   74  A    between atoms: _182  and  _183
REMARK   75  A    between atoms: _182  and  _185
REMARK   76  A    between atoms: _185  and  _186
REMARK   77  A    between atoms: _191  and  _192
REMARK   78  A    between atoms: _194  and  _196
REMARK   79  A    between atoms: _196  and  _197
REMARK   80  A    between atoms: _196  and  _199
REMARK   81  A    between atoms: _199  and  _200
REMARK   82  A    between atoms: _203  and  _205
REMARK   83  A    between atoms: _205  and  _206
REMARK   84  A    between atoms: _205  and  _208
REMARK   85  A    between atoms: _208  and  _209
REMARK   86  A    between atoms: _209  and  _210
REMARK   87  A    between atoms: _215  and  _217
REMARK   88  A    between atoms: _217  and  _218
REMARK   89  A    between atoms: _220  and  _222
REMARK   90  A    between atoms: _222  and  _223
REMARK   91  A    between atoms: _222  and  _225
REMARK   92  A    between atoms: _225  and  _226
REMARK   93  A    between atoms: _226  and  _227
REMARK   94  A    between atoms: _227  and  _228
REMARK   95  A    between atoms: _228  and  _229
REMARK   96  A    between atoms: _233  and  _235
REMARK   97  A    between atoms: _235  and  _236
REMARK   98  A    between atoms: _235  and  _238
REMARK   99  A    between atoms: _238  and  _239
REMARK  100  A    between atoms: _249  and  _251
REMARK  101  A    between atoms: _251  and  _252
REMARK  102  A    between atoms: _255  and  _257
REMARK  103  A    between atoms: _257  and  _258
REMARK  104  A    between atoms: _257  and  _260
REMARK  105  A    between atoms: _260  and  _261
REMARK  106  A    between atoms: _261  and  _262
REMARK  107  A    between atoms: _262  and  _263
REMARK  108  A    between atoms: _263  and  _264
REMARK  109  A    between atoms: _268  and  _270
REMARK  110  A    between atoms: _270  and  _271
REMARK  111  A    between atoms: _270  and  _273
REMARK  112  A    between atoms: _273  and  _274
REMARK  113  A    between atoms: _280  and  _282
REMARK  114  A    between atoms: _282  and  _283
REMARK  115  A    between atoms: _282  and  _285
REMARK  116  A    between atoms: _285  and  _286
REMARK  117  A    between atoms: _292  and  _294
REMARK  118  A    between atoms: _294  and  _295
REMARK  119  A    between atoms: _294  and  _297
REMARK  120  A    between atoms: _297  and  _298
REMARK  121  A    between atoms: _301  and  _303
REMARK  122  A    between atoms: _303  and  _304
REMARK  123  A    between atoms: _303  and  _306
REMARK  124  A    between atoms: _306  and  _307
REMARK  125  A    between atoms: _309  and  _311
REMARK  126  A    between atoms: _311  and  _312
REMARK  127  A    between atoms: _311  and  _314
REMARK  128  A    between atoms: _314  and  _315
REMARK  129  A    between atoms: _325  and  _327
REMARK  130  A    between atoms: _327  and  _328
REMARK  131  A    between atoms: _330  and  _332
REMARK  132  A    between atoms: _332  and  _333
REMARK  133  A    between atoms: _332  and  _335
REMARK  134  A    between atoms: _335  and  _336
REMARK  135  A    between atoms: _339  and  _341
REMARK  136  A    between atoms: _341  and  _342
REMARK  137  A    between atoms: _341  and  _344
REMARK  138  A    between atoms: _344  and  _345
REMARK  139  A    between atoms: _348  and  _350
REMARK  140  A    between atoms: _350  and  _351
REMARK  141  A    between atoms: _353  and  _355
REMARK  142  A    between atoms: _355  and  _356
REMARK  143  A    between atoms: _355  and  _358
REMARK  144  A    between atoms: _358  and  _359
REMARK  145  A    between atoms: _362  and  _364
REMARK  146  A    between atoms: _364  and  _365
REMARK  147  A    between atoms: _364  and  _367
REMARK  148  A    between atoms: _367  and  _368
REMARK  149  A    between atoms: _371  and  _373
REMARK  150  A    between atoms: _373  and  _374
REMARK  151  A    between atoms: _377  and  _379
REMARK  152  A    between atoms: _379  and  _380
REMARK  153  A    between atoms: _379  and  _382
REMARK  154  A    between atoms: _382  and  _383
REMARK  155  A    between atoms: _383  and  _384
REMARK  156  A    between atoms: _384  and  _385
REMARK  157  A    between atoms: _395  and  _396
REMARK  158  A    between atoms: _401  and  _403
REMARK  159  A    between atoms: _403  and  _404
REMARK  160  A    between atoms: _403  and  _406
REMARK  161  A    between atoms: _406  and  _407
REMARK  162  A    between atoms: _410  and  _412
REMARK  163  A    between atoms: _412  and  _413
REMARK  164  A    between atoms: _412  and  _415
REMARK  165  A    between atoms: _415  and  _416
REMARK  166  A    between atoms: _421  and  _422
REMARK  167  A    between atoms: _424  and  _426
REMARK  168  A    between atoms: _426  and  _427
REMARK  169  A    between atoms: _426  and  _429
REMARK  170  A    between atoms: _429  and  _430
REMARK  171  A    between atoms: _433  and  _435
REMARK  172  A    between atoms: _435  and  _436
REMARK  173  A    between atoms: _435  and  _438
REMARK  174  A    between atoms: _441  and  _443
REMARK  175  A    between atoms: _443  and  _444
REMARK  176  A    between atoms: _443  and  _446
REMARK  177  A    between atoms: _446  and  _447
REMARK  178  A    between atoms: _450  and  _452
REMARK  179  A    between atoms: _452  and  _453
REMARK  180  A    between atoms: _452  and  _455
REMARK  181  A    between atoms: _455  and  _456
REMARK  182  A    between atoms: _458  and  _460
REMARK  183  A    between atoms: _460  and  _461
REMARK  184  A    between atoms: _463  and  _465
REMARK  185  A    between atoms: _465  and  _466
REMARK  186  A    between atoms: _465  and  _468
REMARK  187  A    between atoms: _468  and  _469
REMARK  188  A    between atoms: _472  and  _474
REMARK  189  A    between atoms: _474  and  _475
REMARK  190  A    between atoms: _474  and  _477
REMARK  191  A    between atoms: _477  and  _478
REMARK  192  A    between atoms: _481  and  _483
REMARK  193  A    between atoms: _483  and  _484
REMARK  194  A    between atoms: _483  and  _486
REMARK  195  A    between atoms: _486  and  _487
REMARK  196  A    between atoms: _492  and  _494
REMARK  197  A    between atoms: _494  and  _495
REMARK  198  A    between atoms: _494  and  _497
REMARK  199  A    between atoms: _497  and  _498
REMARK  200  A    between atoms: _498  and  _499
REMARK  201  A    between atoms: _499  and  _500
REMARK  202  A    between atoms: _509  and  _511
REMARK  203  A    between atoms: _511  and  _512
REMARK  204  A    between atoms: _511  and  _514
REMARK  205  A    between atoms: _514  and  _515
REMARK  206  A    between atoms: _518  and  _520
REMARK  207  A    between atoms: _520  and  _521
REMARK  208  A    between atoms: _520  and  _523
REMARK  209  A    between atoms: _526  and  _528
REMARK  210  A    between atoms: _528  and  _529
REMARK  211  A    between atoms: _531  and  _533
REMARK  212  A    between atoms: _533  and  _534
REMARK  213  A    between atoms: _537  and  _539
REMARK  214  A    between atoms: _539  and  _540
REMARK  215  A    between atoms: _539  and  _542
REMARK                            x       y       z     vdW  Elec       q    Type
REMARK                         _______ _______ _______ _____ _____    ______ ____
ROOT
ATOM      1  O   HOH     1      29.206   5.078  22.700  0.00  0.00    +0.000 OA
ENDROOT
TORSDOF 0
REMARK  Name = ../refined-set-2016/4h3j/4h3j_pocket.pdb
REMARK  215 active torsions:
REMARK  status: ('A' for Active; 'I' for Inactive)
REMARK    1  A    between atoms: _1  and  _3
REMARK    2  A    between atoms: _3  and  _4
REMARK    3  A    between atoms: _3  and  _6
REMARK    4  A    between atoms: _6  and  _7
REMARK    5  A    between atoms: _7  and  _8
REMARK    6  A    between atoms: _8  and  _9
REMARK    7  A    between atoms: _9  and  _10
REMARK    8  A    between atoms: _14  and  _16
REMARK    9  A    between atoms: _16  and  _17
REMARK   10  A    between atoms: _16  and  _19
REMARK   11  A    between atoms: _19  and  _20
REMARK   12  A    between atoms: _22  and  _24
REMARK   13  A    between atoms: _24  and  _25
REMARK   14  A    between atoms: _27  and  _29
REMARK   15  A    between atoms: _29  and  _30
REMARK   16  A    between atoms: _29  and  _32
REMARK   17  A    between atoms: _32  and  _33
REMARK   18  A    between atoms: _33  and  _34
REMARK   19  A    between atoms: _39  and  _41
REMARK   20  A    between atoms: _41  and  _42
REMARK   21  A    between atoms: _44  and  _46
REMARK   22  A    between atoms: _46  and  _47
REMARK   23  A    between atoms: _46  and  _49
REMARK   24  A    between atoms: _49  and  _50
REMARK   25  A    between atoms: _55  and  _56
REMARK   26  A    between atoms: _58  and  _60
REMARK   27  A    between atoms: _60  and  _61
REMARK   28  A    between atoms: _60  and  _63
REMARK   29  A    between atoms: _63  and  _64
REMARK   30  A    between atoms: _67  and  _69
REMARK   31  A    between atoms: _69  and  _70
REMARK   32  A    between atoms: _69  and  _72
REMARK   33  A    between atoms: _75  and  _77
REMARK   34  A    between atoms: _77  and  _78
REMARK   35  A    between atoms: _77  and  _80
REMARK   36  A    between atoms: _80  and  _81
REMARK   37  A    between atoms: _84  and  _86
REMARK   38  A    between atoms: _86  and  _87
REMARK   39  A    between atoms: _86  and  _89
REMARK   40  A    between atoms: _89  and  _90
REMARK   41  A    between atoms: _93  and  _95
REMARK   42  A    between atoms: _95  and  _96
REMARK   43  A    between atoms: _98  and  _100
REMARK   44  A    between atoms: _100  and  _101
REMARK   45  A    between atoms: _100  and  _103
REMARK   46  A    between atoms: _103  and  _104
REMARK   47  A    between atoms: _106  and  _108
REMARK   48  A    between atoms: _108  and  _109
REMARK   49  A    between atoms: _108  and  _111
REMARK   50  A    between atoms: _111  and  _112
REMARK   51  A    between atoms: _114  and  _116
REMARK   52  A    between atoms: _116  and  _117
REMARK   53  A    between atoms: _116  and  _119
REMARK   54  A    between atoms: _119  and  _120
REMARK   55  A    between atoms: _125  and  _127
REMARK   56  A    between atoms: _127  and  _128
REMARK   57  A    between atoms: _127  and  _130
REMARK   58  A    between atoms: _130  and  _131
REMARK   59  A    between atoms: _137  and  _139
REMARK   60  A    between atoms: _139  and  _140
REMARK   61  A    between atoms: _143  and  _145
REMARK   62  A    between atoms: _145  and  _146
REMARK   63  A    between atoms: _145  and  _148
REMARK   64  A    between atoms: _151  and  _153
REMARK   65  A    between atoms: _153  and  _154
REMARK   66  A    between atoms: _153  and  _156
REMARK   67  A    between atoms: _156  and  _157
REMARK   68  A    between atoms: _162  and  _163
REMARK   69  A    between atoms: _165  and  _167
REMARK   70  A    between atoms: _167  and  _168
REMARK   71  A    between atoms: _167  and  _170
REMARK   72  A    between atoms: _174  and  _175
REMARK   73  A    between atoms: _180  and  _182
REMARK   74  A    between atoms: _182  and  _183
REMARK   75  A    between atoms: _182  and  _185
REMARK   76  A    between atoms: _185  and  _186
REMARK   77  A    between atoms: _191  and  _192
REMARK   78  A    between atoms: _194  and  _196
REMARK   79  A    between atoms: _196  and  _197
REMARK   80  A    between atoms: _196  and  _199
REMARK   81  A    between atoms: _199  and  _200
REMARK   82  A    between atoms: _203  and  _205
REMARK   83  A    between atoms: _205  and  _206
REMARK   84  A    between atoms: _205  and  _208
REMARK   85  A    between atoms: _208  and  _209
REMARK   86  A    between atoms: _209  and  _210
REMARK   87  A    between atoms: _215  and  _217
REMARK   88  A    between atoms: _217  and  _218
REMARK   89  A    between atoms: _220  and  _222
REMARK   90  A    between atoms: _222  and  _223
REMARK   91  A    between atoms: _222  and  _225
REMARK   92  A    between atoms: _225  and  _226
REMARK   93  A    between atoms: _226  and  _227
REMARK   94  A    between atoms: _227  and  _228
REMARK   95  A    between atoms: _228  and  _229
REMARK   96  A    between atoms: _233  and  _235
REMARK   97  A    between atoms: _235  and  _236
REMARK   98  A    between atoms: _235  and  _238
REMARK   99  A    between atoms: _238  and  _239
REMARK  100  A    between atoms: _249  and  _251
REMARK  101  A    between atoms: _251  and  _252
REMARK  102  A    between atoms: _255  and  _257
REMARK  103  A    between atoms: _257  and  _258
REMARK  104  A    between atoms: _257  and  _260
REMARK  105  A    between atoms: _260  and  _261
REMARK  106  A    between atoms: _261  and  _262
REMARK  107  A    between atoms: _262  and  _263
REMARK  108  A    between atoms: _263  and  _264
REMARK  109  A    between atoms: _268  and  _270
REMARK  110  A    between atoms: _270  and  _271
REMARK  111  A    between atoms: _270  and  _273
REMARK  112  A    between atoms: _273  and  _274
REMARK  113  A    between atoms: _280  and  _282
REMARK  114  A    between atoms: _282  and  _283
REMARK  115  A    between atoms: _282  and  _285
REMARK  116  A    between atoms: _285  and  _286
REMARK  117  A    between atoms: _292  and  _294
REMARK  118  A    between atoms: _294  and  _295
REMARK  119  A    between atoms: _294  and  _297
REMARK  120  A    between atoms: _297  and  _298
REMARK  121  A    between atoms: _301  and  _303
REMARK  122  A    between atoms: _303  and  _304
REMARK  123  A    between atoms: _303  and  _306
REMARK  124  A    between atoms: _306  and  _307
REMARK  125  A    between atoms: _309  and  _311
REMARK  126  A    between atoms: _311  and  _312
REMARK  127  A    between atoms: _311  and  _314
REMARK  128  A    between atoms: _314  and  _315
REMARK  129  A    between atoms: _325  and  _327
REMARK  130  A    between atoms: _327  and  _328
REMARK  131  A    between atoms: _330  and  _332
REMARK  132  A    between atoms: _332  and  _333
REMARK  133  A    between atoms: _332  and  _335
REMARK  134  A    between atoms: _335  and  _336
REMARK  135  A    between atoms: _339  and  _341
REMARK  136  A    between atoms: _341  and  _342
REMARK  137  A    between atoms: _341  and  _344
REMARK  138  A    between atoms: _344  and  _345
REMARK  139  A    between atoms: _348  and  _350
REMARK  140  A    between atoms: _350  and  _351
REMARK  141  A    between atoms: _353  and  _355
REMARK  142  A    between atoms: _355  and  _356
REMARK  143  A    between atoms: _355  and  _358
REMARK  144  A    between atoms: _358  and  _359
REMARK  145  A    between atoms: _362  and  _364
REMARK  146  A    between atoms: _364  and  _365
REMARK  147  A    between atoms: _364  and  _367
REMARK  148  A    between atoms: _367  and  _368
REMARK  149  A    between atoms: _371  and  _373
REMARK  150  A    between atoms: _373  and  _374
REMARK  151  A    between atoms: _377  and  _379
REMARK  152  A    between atoms: _379  and  _380
REMARK  153  A    between atoms: _379  and  _382
REMARK  154  A    between atoms: _382  and  _383
REMARK  155  A    between atoms: _383  and  _384
REMARK  156  A    between atoms: _384  and  _385
REMARK  157  A    between atoms: _395  and  _396
REMARK  158  A    between atoms: _401  and  _403
REMARK  159  A    between atoms: _403  and  _404
REMARK  160  A    between atoms: _403  and  _406
REMARK  161  A    between atoms: _406  and  _407
REMARK  162  A    between atoms: _410  and  _412
REMARK  163  A    between atoms: _412  and  _413
REMARK  164  A    between atoms: _412  and  _415
REMARK  165  A    between atoms: _415  and  _416
REMARK  166  A    between atoms: _421  and  _422
REMARK  167  A    between atoms: _424  and  _426
REMARK  168  A    between atoms: _426  and  _427
REMARK  169  A    between atoms: _426  and  _429
REMARK  170  A    between atoms: _429  and  _430
REMARK  171  A    between atoms: _433  and  _435
REMARK  172  A    between atoms: _435  and  _436
REMARK  173  A    between atoms: _435  and  _438
REMARK  174  A    between atoms: _441  and  _443
REMARK  175  A    between atoms: _443  and  _444
REMARK  176  A    between atoms: _443  and  _446
REMARK  177  A    between atoms: _446  and  _447
REMARK  178  A    between atoms: _450  and  _452
REMARK  179  A    between atoms: _452  and  _453
REMARK  180  A    between atoms: _452  and  _455
REMARK  181  A    between atoms: _455  and  _456
REMARK  182  A    between atoms: _458  and  _460
REMARK  183  A    between atoms: _460  and  _461
REMARK  184  A    between atoms: _463  and  _465
REMARK  185  A    between atoms: _465  and  _466
REMARK  186  A    between atoms: _465  and  _468
REMARK  187  A    between atoms: _468  and  _469
REMARK  188  A    between atoms: _472  and  _474
REMARK  189  A    between atoms: _474  and  _475
REMARK  190  A    between atoms: _474  and  _477
REMARK  191  A    between atoms: _477  and  _478
REMARK  192  A    between atoms: _481  and  _483
REMARK  193  A    between atoms: _483  and  _484
REMARK  194  A    between atoms: _483  and  _486
REMARK  195  A    between atoms: _486  and  _487
REMARK  196  A    between atoms: _492  and  _494
REMARK  197  A    between atoms: _494  and  _495
REMARK  198  A    between atoms: _494  and  _497
REMARK  199  A    between atoms: _497  and  _498
REMARK  200  A    between atoms: _498  and  _499
REMARK  201  A    between atoms: _499  and  _500
REMARK  202  A    between atoms: _509  and  _511
REMARK  203  A    between atoms: _511  and  _512
REMARK  204  A    between atoms: _511  and  _514
REMARK  205  A    between atoms: _514  and  _515
REMARK  206  A    between atoms: _518  and  _520
REMARK  207  A    between atoms: _520  and  _521
REMARK  208  A    between atoms: _520  and  _523
REMARK  209  A    between atoms: _526  and  _528
REMARK  210  A    between atoms: _528  and  _529
REMARK  211  A    between atoms: _531  and  _533
REMARK  212  A    between atoms: _533  and  _534
REMARK  213  A    between atoms: _537  and  _539
REMARK  214  A    between atoms: _539  and  _540
REMARK  215  A    between atoms: _539  and  _542
REMARK                            x       y       z     vdW  Elec       q    Type
REMARK                         _______ _______ _______ _____ _____    ______ ____
ROOT
ATOM      1  O   HOH     1      18.075   5.733  19.785  0.00  0.00    +0.000 OA
ENDROOT
TORSDOF 0
REMARK  Name = ../refined-set-2016/4h3j/4h3j_pocket.pdb
REMARK  215 active torsions:
REMARK  status: ('A' for Active; 'I' for Inactive)
REMARK    1  A    between atoms: _1  and  _3
REMARK    2  A    between atoms: _3  and  _4
REMARK    3  A    between atoms: _3  and  _6
REMARK    4  A    between atoms: _6  and  _7
REMARK    5  A    between atoms: _7  and  _8
REMARK    6  A    between atoms: _8  and  _9
REMARK    7  A    between atoms: _9  and  _10
REMARK    8  A    between atoms: _14  and  _16
REMARK    9  A    between atoms: _16  and  _17
REMARK   10  A    between atoms: _16  and  _19
REMARK   11  A    between atoms: _19  and  _20
REMARK   12  A    between atoms: _22  and  _24
REMARK   13  A    between atoms: _24  and  _25
REMARK   14  A    between atoms: _27  and  _29
REMARK   15  A    between atoms: _29  and  _30
REMARK   16  A    between atoms: _29  and  _32
REMARK   17  A    between atoms: _32  and  _33
REMARK   18  A    between atoms: _33  and  _34
REMARK   19  A    between atoms: _39  and  _41
REMARK   20  A    between atoms: _41  and  _42
REMARK   21  A    between atoms: _44  and  _46
REMARK   22  A    between atoms: _46  and  _47
REMARK   23  A    between atoms: _46  and  _49
REMARK   24  A    between atoms: _49  and  _50
REMARK   25  A    between atoms: _55  and  _56
REMARK   26  A    between atoms: _58  and  _60
REMARK   27  A    between atoms: _60  and  _61
REMARK   28  A    between atoms: _60  and  _63
REMARK   29  A    between atoms: _63  and  _64
REMARK   30  A    between atoms: _67  and  _69
REMARK   31  A    between atoms: _69  and  _70
REMARK   32  A    between atoms: _69  and  _72
REMARK   33  A    between atoms: _75  and  _77
REMARK   34  A    between atoms: _77  and  _78
REMARK   35  A    between atoms: _77  and  _80
REMARK   36  A    between atoms: _80  and  _81
REMARK   37  A    between atoms: _84  and  _86
REMARK   38  A    between atoms: _86  and  _87
REMARK   39  A    between atoms: _86  and  _89
REMARK   40  A    between atoms: _89  and  _90
REMARK   41  A    between atoms: _93  and  _95
REMARK   42  A    between atoms: _95  and  _96
REMARK   43  A    between atoms: _98  and  _100
REMARK   44  A    between atoms: _100  and  _101
REMARK   45  A    between atoms: _100  and  _103
REMARK   46  A    between atoms: _103  and  _104
REMARK   47  A    between atoms: _106  and  _108
REMARK   48  A    between atoms: _108  and  _109
REMARK   49  A    between atoms: _108  and  _111
REMARK   50  A    between atoms: _111  and  _112
REMARK   51  A    between atoms: _114  and  _116
REMARK   52  A    between atoms: _116  and  _117
REMARK   53  A    between atoms: _116  and  _119
REMARK   54  A    between atoms: _119  and  _120
REMARK   55  A    between atoms: _125  and  _127
REMARK   56  A    between atoms: _127  and  _128
REMARK   57  A    between atoms: _127  and  _130
REMARK   58  A    between atoms: _130  and  _131
REMARK   59  A    between atoms: _137  and  _139
REMARK   60  A    between atoms: _139  and  _140
REMARK   61  A    between atoms: _143  and  _145
REMARK   62  A    between atoms: _145  and  _146
REMARK   63  A    between atoms: _145  and  _148
REMARK   64  A    between atoms: _151  and  _153
REMARK   65  A    between atoms: _153  and  _154
REMARK   66  A    between atoms: _153  and  _156
REMARK   67  A    between atoms: _156  and  _157
REMARK   68  A    between atoms: _162  and  _163
REMARK   69  A    between atoms: _165  and  _167
REMARK   70  A    between atoms: _167  and  _168
REMARK   71  A    between atoms: _167  and  _170
REMARK   72  A    between atoms: _174  and  _175
REMARK   73  A    between atoms: _180  and  _182
REMARK   74  A    between atoms: _182  and  _183
REMARK   75  A    between atoms: _182  and  _185
REMARK   76  A    between atoms: _185  and  _186
REMARK   77  A    between atoms: _191  and  _192
REMARK   78  A    between atoms: _194  and  _196
REMARK   79  A    between atoms: _196  and  _197
REMARK   80  A    between atoms: _196  and  _199
REMARK   81  A    between atoms: _199  and  _200
REMARK   82  A    between atoms: _203  and  _205
REMARK   83  A    between atoms: _205  and  _206
REMARK   84  A    between atoms: _205  and  _208
REMARK   85  A    between atoms: _208  and  _209
REMARK   86  A    between atoms: _209  and  _210
REMARK   87  A    between atoms: _215  and  _217
REMARK   88  A    between atoms: _217  and  _218
REMARK   89  A    between atoms: _220  and  _222
REMARK   90  A    between atoms: _222  and  _223
REMARK   91  A    between atoms: _222  and  _225
REMARK   92  A    between atoms: _225  and  _226
REMARK   93  A    between atoms: _226  and  _227
REMARK   94  A    between atoms: _227  and  _228
REMARK   95  A    between atoms: _228  and  _229
REMARK   96  A    between atoms: _233  and  _235
REMARK   97  A    between atoms: _235  and  _236
REMARK   98  A    between atoms: _235  and  _238
REMARK   99  A    between atoms: _238  and  _239
REMARK  100  A    between atoms: _249  and  _251
REMARK  101  A    between atoms: _251  and  _252
REMARK  102  A    between atoms: _255  and  _257
REMARK  103  A    between atoms: _257  and  _258
REMARK  104  A    between atoms: _257  and  _260
REMARK  105  A    between atoms: _260  and  _261
REMARK  106  A    between atoms: _261  and  _262
REMARK  107  A    between atoms: _262  and  _263
REMARK  108  A    between atoms: _263  and  _264
REMARK  109  A    between atoms: _268  and  _270
REMARK  110  A    between atoms: _270  and  _271
REMARK  111  A    between atoms: _270  and  _273
REMARK  112  A    between atoms: _273  and  _274
REMARK  113  A    between atoms: _280  and  _282
REMARK  114  A    between atoms: _282  and  _283
REMARK  115  A    between atoms: _282  and  _285
REMARK  116  A    between atoms: _285  and  _286
REMARK  117  A    between atoms: _292  and  _294
REMARK  118  A    between atoms: _294  and  _295
REMARK  119  A    between atoms: _294  and  _297
REMARK  120  A    between atoms: _297  and  _298
REMARK  121  A    between atoms: _301  and  _303
REMARK  122  A    between atoms: _303  and  _304
REMARK  123  A    between atoms: _303  and  _306
REMARK  124  A    between atoms: _306  and  _307
REMARK  125  A    between atoms: _309  and  _311
REMARK  126  A    between atoms: _311  and  _312
REMARK  127  A    between atoms: _311  and  _314
REMARK  128  A    between atoms: _314  and  _315
REMARK  129  A    between atoms: _325  and  _327
REMARK  130  A    between atoms: _327  and  _328
REMARK  131  A    between atoms: _330  and  _332
REMARK  132  A    between atoms: _332  and  _333
REMARK  133  A    between atoms: _332  and  _335
REMARK  134  A    between atoms: _335  and  _336
REMARK  135  A    between atoms: _339  and  _341
REMARK  136  A    between atoms: _341  and  _342
REMARK  137  A    between atoms: _341  and  _344
REMARK  138  A    between atoms: _344  and  _345
REMARK  139  A    between atoms: _348  and  _350
REMARK  140  A    between atoms: _350  and  _351
REMARK  141  A    between atoms: _353  and  _355
REMARK  142  A    between atoms: _355  and  _356
REMARK  143  A    between atoms: _355  and  _358
REMARK  144  A    between atoms: _358  and  _359
REMARK  145  A    between atoms: _362  and  _364
REMARK  146  A    between atoms: _364  and  _365
REMARK  147  A    between atoms: _364  and  _367
REMARK  148  A    between atoms: _367  and  _368
REMARK  149  A    between atoms: _371  and  _373
REMARK  150  A    between atoms: _373  and  _374
REMARK  151  A    between atoms: _377  and  _379
REMARK  152  A    between atoms: _379  and  _380
REMARK  153  A    between atoms: _379  and  _382
REMARK  154  A    between atoms: _382  and  _383
REMARK  155  A    between atoms: _383  and  _384
REMARK  156  A    between atoms: _384  and  _385
REMARK  157  A    between atoms: _395  and  _396
REMARK  158  A    between atoms: _401  and  _403
REMARK  159  A    between atoms: _403  and  _404
REMARK  160  A    between atoms: _403  and  _406
REMARK  161  A    between atoms: _406  and  _407
REMARK  162  A    between atoms: _410  and  _412
REMARK  163  A    between atoms: _412  and  _413
REMARK  164  A    between atoms: _412  and  _415
REMARK  165  A    between atoms: _415  and  _416
REMARK  166  A    between atoms: _421  and  _422
REMARK  167  A    between atoms: _424  and  _426
REMARK  168  A    between atoms: _426  and  _427
REMARK  169  A    between atoms: _426  and  _429
REMARK  170  A    between atoms: _429  and  _430
REMARK  171  A    between atoms: _433  and  _435
REMARK  172  A    between atoms: _435  and  _436
REMARK  173  A    between atoms: _435  and  _438
REMARK  174  A    between atoms: _441  and  _443
REMARK  175  A    between atoms: _443  and  _444
REMARK  176  A    between atoms: _443  and  _446
REMARK  177  A    between atoms: _446  and  _447
REMARK  178  A    between atoms: _450  and  _452
REMARK  179  A    between atoms: _452  and  _453
REMARK  180  A    between atoms: _452  and  _455
REMARK  181  A    between atoms: _455  and  _456
REMARK  182  A    between atoms: _458  and  _460
REMARK  183  A    between atoms: _460  and  _461
REMARK  184  A    between atoms: _463  and  _465
REMARK  185  A    between atoms: _465  and  _466
REMARK  186  A    between atoms: _465  and  _468
REMARK  187  A    between atoms: _468  and  _469
REMARK  188  A    between atoms: _472  and  _474
REMARK  189  A    between atoms: _474  and  _475
REMARK  190  A    between atoms: _474  and  _477
REMARK  191  A    between atoms: _477  and  _478
REMARK  192  A    between atoms: _481  and  _483
REMARK  193  A    between atoms: _483  and  _484
REMARK  194  A    between atoms: _483  and  _486
REMARK  195  A    between atoms: _486  and  _487
REMARK  196  A    between atoms: _492  and  _494
REMARK  197  A    between atoms: _494  and  _495
REMARK  198  A    between atoms: _494  and  _497
REMARK  199  A    between atoms: _497  and  _498
REMARK  200  A    between atoms: _498  and  _499
REMARK  201  A    between atoms: _499  and  _500
REMARK  202  A    between atoms: _509  and  _511
REMARK  203  A    between atoms: _511  and  _512
REMARK  204  A    between atoms: _511  and  _514
REMARK  205  A    between atoms: _514  and  _515
REMARK  206  A    between atoms: _518  and  _520
REMARK  207  A    between atoms: _520  and  _521
REMARK  208  A    between atoms: _520  and  _523
REMARK  209  A    between atoms: _526  and  _528
REMARK  210  A    between atoms: _528  and  _529
REMARK  211  A    between atoms: _531  and  _533
REMARK  212  A    between atoms: _533  and  _534
REMARK  213  A    between atoms: _537  and  _539
REMARK  214  A    between atoms: _539  and  _540
REMARK  215  A    between atoms: _539  and  _542
REMARK                            x       y       z     vdW  Elec       q    Type
REMARK                         _______ _______ _______ _____ _____    ______ ____
ROOT
ATOM      1  O   HOH     1      14.843   6.343  22.328  0.00  0.00    +0.000 OA
ENDROOT
TORSDOF 0
REMARK  Name = ../refined-set-2016/4h3j/4h3j_pocket.pdb
REMARK  215 active torsions:
REMARK  status: ('A' for Active; 'I' for Inactive)
REMARK    1  A    between atoms: _1  and  _3
REMARK    2  A    between atoms: _3  and  _4
REMARK    3  A    between atoms: _3  and  _6
REMARK    4  A    between atoms: _6  and  _7
REMARK    5  A    between atoms: _7  and  _8
REMARK    6  A    between atoms: _8  and  _9
REMARK    7  A    between atoms: _9  and  _10
REMARK    8  A    between atoms: _14  and  _16
REMARK    9  A    between atoms: _16  and  _17
REMARK   10  A    between atoms: _16  and  _19
REMARK   11  A    between atoms: _19  and  _20
REMARK   12  A    between atoms: _22  and  _24
REMARK   13  A    between atoms: _24  and  _25
REMARK   14  A    between atoms: _27  and  _29
REMARK   15  A    between atoms: _29  and  _30
REMARK   16  A    between atoms: _29  and  _32
REMARK   17  A    between atoms: _32  and  _33
REMARK   18  A    between atoms: _33  and  _34
REMARK   19  A    between atoms: _39  and  _41
REMARK   20  A    between atoms: _41  and  _42
REMARK   21  A    between atoms: _44  and  _46
REMARK   22  A    between atoms: _46  and  _47
REMARK   23  A    between atoms: _46  and  _49
REMARK   24  A    between atoms: _49  and  _50
REMARK   25  A    between atoms: _55  and  _56
REMARK   26  A    between atoms: _58  and  _60
REMARK   27  A    between atoms: _60  and  _61
REMARK   28  A    between atoms: _60  and  _63
REMARK   29  A    between atoms: _63  and  _64
REMARK   30  A    between atoms: _67  and  _69
REMARK   31  A    between atoms: _69  and  _70
REMARK   32  A    between atoms: _69  and  _72
REMARK   33  A    between atoms: _75  and  _77
REMARK   34  A    between atoms: _77  and  _78
REMARK   35  A    between atoms: _77  and  _80
REMARK   36  A    between atoms: _80  and  _81
REMARK   37  A    between atoms: _84  and  _86
REMARK   38  A    between atoms: _86  and  _87
REMARK   39  A    between atoms: _86  and  _89
REMARK   40  A    between atoms: _89  and  _90
REMARK   41  A    between atoms: _93  and  _95
REMARK   42  A    between atoms: _95  and  _96
REMARK   43  A    between atoms: _98  and  _100
REMARK   44  A    between atoms: _100  and  _101
REMARK   45  A    between atoms: _100  and  _103
REMARK   46  A    between atoms: _103  and  _104
REMARK   47  A    between atoms: _106  and  _108
REMARK   48  A    between atoms: _108  and  _109
REMARK   49  A    between atoms: _108  and  _111
REMARK   50  A    between atoms: _111  and  _112
REMARK   51  A    between atoms: _114  and  _116
REMARK   52  A    between atoms: _116  and  _117
REMARK   53  A    between atoms: _116  and  _119
REMARK   54  A    between atoms: _119  and  _120
REMARK   55  A    between atoms: _125  and  _127
REMARK   56  A    between atoms: _127  and  _128
REMARK   57  A    between atoms: _127  and  _130
REMARK   58  A    between atoms: _130  and  _131
REMARK   59  A    between atoms: _137  and  _139
REMARK   60  A    between atoms: _139  and  _140
REMARK   61  A    between atoms: _143  and  _145
REMARK   62  A    between atoms: _145  and  _146
REMARK   63  A    between atoms: _145  and  _148
REMARK   64  A    between atoms: _151  and  _153
REMARK   65  A    between atoms: _153  and  _154
REMARK   66  A    between atoms: _153  and  _156
REMARK   67  A    between atoms: _156  and  _157
REMARK   68  A    between atoms: _162  and  _163
REMARK   69  A    between atoms: _165  and  _167
REMARK   70  A    between atoms: _167  and  _168
REMARK   71  A    between atoms: _167  and  _170
REMARK   72  A    between atoms: _174  and  _175
REMARK   73  A    between atoms: _180  and  _182
REMARK   74  A    between atoms: _182  and  _183
REMARK   75  A    between atoms: _182  and  _185
REMARK   76  A    between atoms: _185  and  _186
REMARK   77  A    between atoms: _191  and  _192
REMARK   78  A    between atoms: _194  and  _196
REMARK   79  A    between atoms: _196  and  _197
REMARK   80  A    between atoms: _196  and  _199
REMARK   81  A    between atoms: _199  and  _200
REMARK   82  A    between atoms: _203  and  _205
REMARK   83  A    between atoms: _205  and  _206
REMARK   84  A    between atoms: _205  and  _208
REMARK   85  A    between atoms: _208  and  _209
REMARK   86  A    between atoms: _209  and  _210
REMARK   87  A    between atoms: _215  and  _217
REMARK   88  A    between atoms: _217  and  _218
REMARK   89  A    between atoms: _220  and  _222
REMARK   90  A    between atoms: _222  and  _223
REMARK   91  A    between atoms: _222  and  _225
REMARK   92  A    between atoms: _225  and  _226
REMARK   93  A    between atoms: _226  and  _227
REMARK   94  A    between atoms: _227  and  _228
REMARK   95  A    between atoms: _228  and  _229
REMARK   96  A    between atoms: _233  and  _235
REMARK   97  A    between atoms: _235  and  _236
REMARK   98  A    between atoms: _235  and  _238
REMARK   99  A    between atoms: _238  and  _239
REMARK  100  A    between atoms: _249  and  _251
REMARK  101  A    between atoms: _251  and  _252
REMARK  102  A    between atoms: _255  and  _257
REMARK  103  A    between atoms: _257  and  _258
REMARK  104  A    between atoms: _257  and  _260
REMARK  105  A    between atoms: _260  and  _261
REMARK  106  A    between atoms: _261  and  _262
REMARK  107  A    between atoms: _262  and  _263
REMARK  108  A    between atoms: _263  and  _264
REMARK  109  A    between atoms: _268  and  _270
REMARK  110  A    between atoms: _270  and  _271
REMARK  111  A    between atoms: _270  and  _273
REMARK  112  A    between atoms: _273  and  _274
REMARK  113  A    between atoms: _280  and  _282
REMARK  114  A    between atoms: _282  and  _283
REMARK  115  A    between atoms: _282  and  _285
REMARK  116  A    between atoms: _285  and  _286
REMARK  117  A    between atoms: _292  and  _294
REMARK  118  A    between atoms: _294  and  _295
REMARK  119  A    between atoms: _294  and  _297
REMARK  120  A    between atoms: _297  and  _298
REMARK  121  A    between atoms: _301  and  _303
REMARK  122  A    between atoms: _303  and  _304
REMARK  123  A    between atoms: _303  and  _306
REMARK  124  A    between atoms: _306  and  _307
REMARK  125  A    between atoms: _309  and  _311
REMARK  126  A    between atoms: _311  and  _312
REMARK  127  A    between atoms: _311  and  _314
REMARK  128  A    between atoms: _314  and  _315
REMARK  129  A    between atoms: _325  and  _327
REMARK  130  A    between atoms: _327  and  _328
REMARK  131  A    between atoms: _330  and  _332
REMARK  132  A    between atoms: _332  and  _333
REMARK  133  A    between atoms: _332  and  _335
REMARK  134  A    between atoms: _335  and  _336
REMARK  135  A    between atoms: _339  and  _341
REMARK  136  A    between atoms: _341  and  _342
REMARK  137  A    between atoms: _341  and  _344
REMARK  138  A    between atoms: _344  and  _345
REMARK  139  A    between atoms: _348  and  _350
REMARK  140  A    between atoms: _350  and  _351
REMARK  141  A    between atoms: _353  and  _355
REMARK  142  A    between atoms: _355  and  _356
REMARK  143  A    between atoms: _355  and  _358
REMARK  144  A    between atoms: _358  and  _359
REMARK  145  A    between atoms: _362  and  _364
REMARK  146  A    between atoms: _364  and  _365
REMARK  147  A    between atoms: _364  and  _367
REMARK  148  A    between atoms: _367  and  _368
REMARK  149  A    between atoms: _371  and  _373
REMARK  150  A    between atoms: _373  and  _374
REMARK  151  A    between atoms: _377  and  _379
REMARK  152  A    between atoms: _379  and  _380
REMARK  153  A    between atoms: _379  and  _382
REMARK  154  A    between atoms: _382  and  _383
REMARK  155  A    between atoms: _383  and  _384
REMARK  156  A    between atoms: _384  and  _385
REMARK  157  A    between atoms: _395  and  _396
REMARK  158  A    between atoms: _401  and  _403
REMARK  159  A    between atoms: _403  and  _404
REMARK  160  A    between atoms: _403  and  _406
REMARK  161  A    between atoms: _406  and  _407
REMARK  162  A    between atoms: _410  and  _412
REMARK  163  A    between atoms: _412  and  _413
REMARK  164  A    between atoms: _412  and  _415
REMARK  165  A    between atoms: _415  and  _416
REMARK  166  A    between atoms: _421  and  _422
REMARK  167  A    between atoms: _424  and  _426
REMARK  168  A    between atoms: _426  and  _427
REMARK  169  A    between atoms: _426  and  _429
REMARK  170  A    between atoms: _429  and  _430
REMARK  171  A    between atoms: _433  and  _435
REMARK  172  A    between atoms: _435  and  _436
REMARK  173  A    between atoms: _435  and  _438
REMARK  174  A    between atoms: _441  and  _443
REMARK  175  A    between atoms: _443  and  _444
REMARK  176  A    between atoms: _443  and  _446
REMARK  177  A    between atoms: _446  and  _447
REMARK  178  A    between atoms: _450  and  _452
REMARK  179  A    between atoms: _452  and  _453
REMARK  180  A    between atoms: _452  and  _455
REMARK  181  A    between atoms: _455  and  _456
REMARK  182  A    between atoms: _458  and  _460
REMARK  183  A    between atoms: _460  and  _461
REMARK  184  A    between atoms: _463  and  _465
REMARK  185  A    between atoms: _465  and  _466
REMARK  186  A    between atoms: _465  and  _468
REMARK  187  A    between atoms: _468  and  _469
REMARK  188  A    between atoms: _472  and  _474
REMARK  189  A    between atoms: _474  and  _475
REMARK  190  A    between atoms: _474  and  _477
REMARK  191  A    between atoms: _477  and  _478
REMARK  192  A    between atoms: _481  and  _483
REMARK  193  A    between atoms: _483  and  _484
REMARK  194  A    between atoms: _483  and  _486
REMARK  195  A    between atoms: _486  and  _487
REMARK  196  A    between atoms: _492  and  _494
REMARK  197  A    between atoms: _494  and  _495
REMARK  198  A    between atoms: _494  and  _497
REMARK  199  A    between atoms: _497  and  _498
REMARK  200  A    between atoms: _498  and  _499
REMARK  201  A    between atoms: _499  and  _500
REMARK  202  A    between atoms: _509  and  _511
REMARK  203  A    between atoms: _511  and  _512
REMARK  204  A    between atoms: _511  and  _514
REMARK  205  A    between atoms: _514  and  _515
REMARK  206  A    between atoms: _518  and  _520
REMARK  207  A    between atoms: _520  and  _521
REMARK  208  A    between atoms: _520  and  _523
REMARK  209  A    between atoms: _526  and  _528
REMARK  210  A    between atoms: _528  and  _529
REMARK  211  A    between atoms: _531  and  _533
REMARK  212  A    between atoms: _533  and  _534
REMARK  213  A    between atoms: _537  and  _539
REMARK  214  A    between atoms: _539  and  _540
REMARK  215  A    between atoms: _539  and  _542
REMARK                            x       y       z     vdW  Elec       q    Type
REMARK                         _______ _______ _______ _____ _____    ______ ____
ROOT
ATOM      1  O   HOH     1      31.202  10.898  16.724  0.00  0.00    +0.000 OA
ENDROOT
TORSDOF 0
REMARK  Name = ../refined-set-2016/4h3j/4h3j_pocket.pdb
REMARK  215 active torsions:
REMARK  status: ('A' for Active; 'I' for Inactive)
REMARK    1  A    between atoms: _1  and  _3
REMARK    2  A    between atoms: _3  and  _4
REMARK    3  A    between atoms: _3  and  _6
REMARK    4  A    between atoms: _6  and  _7
REMARK    5  A    between atoms: _7  and  _8
REMARK    6  A    between atoms: _8  and  _9
REMARK    7  A    between atoms: _9  and  _10
REMARK    8  A    between atoms: _14  and  _16
REMARK    9  A    between atoms: _16  and  _17
REMARK   10  A    between atoms: _16  and  _19
REMARK   11  A    between atoms: _19  and  _20
REMARK   12  A    between atoms: _22  and  _24
REMARK   13  A    between atoms: _24  and  _25
REMARK   14  A    between atoms: _27  and  _29
REMARK   15  A    between atoms: _29  and  _30
REMARK   16  A    between atoms: _29  and  _32
REMARK   17  A    between atoms: _32  and  _33
REMARK   18  A    between atoms: _33  and  _34
REMARK   19  A    between atoms: _39  and  _41
REMARK   20  A    between atoms: _41  and  _42
REMARK   21  A    between atoms: _44  and  _46
REMARK   22  A    between atoms: _46  and  _47
REMARK   23  A    between atoms: _46  and  _49
REMARK   24  A    between atoms: _49  and  _50
REMARK   25  A    between atoms: _55  and  _56
REMARK   26  A    between atoms: _58  and  _60
REMARK   27  A    between atoms: _60  and  _61
REMARK   28  A    between atoms: _60  and  _63
REMARK   29  A    between atoms: _63  and  _64
REMARK   30  A    between atoms: _67  and  _69
REMARK   31  A    between atoms: _69  and  _70
REMARK   32  A    between atoms: _69  and  _72
REMARK   33  A    between atoms: _75  and  _77
REMARK   34  A    between atoms: _77  and  _78
REMARK   35  A    between atoms: _77  and  _80
REMARK   36  A    between atoms: _80  and  _81
REMARK   37  A    between atoms: _84  and  _86
REMARK   38  A    between atoms: _86  and  _87
REMARK   39  A    between atoms: _86  and  _89
REMARK   40  A    between atoms: _89  and  _90
REMARK   41  A    between atoms: _93  and  _95
REMARK   42  A    between atoms: _95  and  _96
REMARK   43  A    between atoms: _98  and  _100
REMARK   44  A    between atoms: _100  and  _101
REMARK   45  A    between atoms: _100  and  _103
REMARK   46  A    between atoms: _103  and  _104
REMARK   47  A    between atoms: _106  and  _108
REMARK   48  A    between atoms: _108  and  _109
REMARK   49  A    between atoms: _108  and  _111
REMARK   50  A    between atoms: _111  and  _112
REMARK   51  A    between atoms: _114  and  _116
REMARK   52  A    between atoms: _116  and  _117
REMARK   53  A    between atoms: _116  and  _119
REMARK   54  A    between atoms: _119  and  _120
REMARK   55  A    between atoms: _125  and  _127
REMARK   56  A    between atoms: _127  and  _128
REMARK   57  A    between atoms: _127  and  _130
REMARK   58  A    between atoms: _130  and  _131
REMARK   59  A    between atoms: _137  and  _139
REMARK   60  A    between atoms: _139  and  _140
REMARK   61  A    between atoms: _143  and  _145
REMARK   62  A    between atoms: _145  and  _146
REMARK   63  A    between atoms: _145  and  _148
REMARK   64  A    between atoms: _151  and  _153
REMARK   65  A    between atoms: _153  and  _154
REMARK   66  A    between atoms: _153  and  _156
REMARK   67  A    between atoms: _156  and  _157
REMARK   68  A    between atoms: _162  and  _163
REMARK   69  A    between atoms: _165  and  _167
REMARK   70  A    between atoms: _167  and  _168
REMARK   71  A    between atoms: _167  and  _170
REMARK   72  A    between atoms: _174  and  _175
REMARK   73  A    between atoms: _180  and  _182
REMARK   74  A    between atoms: _182  and  _183
REMARK   75  A    between atoms: _182  and  _185
REMARK   76  A    between atoms: _185  and  _186
REMARK   77  A    between atoms: _191  and  _192
REMARK   78  A    between atoms: _194  and  _196
REMARK   79  A    between atoms: _196  and  _197
REMARK   80  A    between atoms: _196  and  _199
REMARK   81  A    between atoms: _199  and  _200
REMARK   82  A    between atoms: _203  and  _205
REMARK   83  A    between atoms: _205  and  _206
REMARK   84  A    between atoms: _205  and  _208
REMARK   85  A    between atoms: _208  and  _209
REMARK   86  A    between atoms: _209  and  _210
REMARK   87  A    between atoms: _215  and  _217
REMARK   88  A    between atoms: _217  and  _218
REMARK   89  A    between atoms: _220  and  _222
REMARK   90  A    between atoms: _222  and  _223
REMARK   91  A    between atoms: _222  and  _225
REMARK   92  A    between atoms: _225  and  _226
REMARK   93  A    between atoms: _226  and  _227
REMARK   94  A    between atoms: _227  and  _228
REMARK   95  A    between atoms: _228  and  _229
REMARK   96  A    between atoms: _233  and  _235
REMARK   97  A    between atoms: _235  and  _236
REMARK   98  A    between atoms: _235  and  _238
REMARK   99  A    between atoms: _238  and  _239
REMARK  100  A    between atoms: _249  and  _251
REMARK  101  A    between atoms: _251  and  _252
REMARK  102  A    between atoms: _255  and  _257
REMARK  103  A    between atoms: _257  and  _258
REMARK  104  A    between atoms: _257  and  _260
REMARK  105  A    between atoms: _260  and  _261
REMARK  106  A    between atoms: _261  and  _262
REMARK  107  A    between atoms: _262  and  _263
REMARK  108  A    between atoms: _263  and  _264
REMARK  109  A    between atoms: _268  and  _270
REMARK  110  A    between atoms: _270  and  _271
REMARK  111  A    between atoms: _270  and  _273
REMARK  112  A    between atoms: _273  and  _274
REMARK  113  A    between atoms: _280  and  _282
REMARK  114  A    between atoms: _282  and  _283
REMARK  115  A    between atoms: _282  and  _285
REMARK  116  A    between atoms: _285  and  _286
REMARK  117  A    between atoms: _292  and  _294
REMARK  118  A    between atoms: _294  and  _295
REMARK  119  A    between atoms: _294  and  _297
REMARK  120  A    between atoms: _297  and  _298
REMARK  121  A    between atoms: _301  and  _303
REMARK  122  A    between atoms: _303  and  _304
REMARK  123  A    between atoms: _303  and  _306
REMARK  124  A    between atoms: _306  and  _307
REMARK  125  A    between atoms: _309  and  _311
REMARK  126  A    between atoms: _311  and  _312
REMARK  127  A    between atoms: _311  and  _314
REMARK  128  A    between atoms: _314  and  _315
REMARK  129  A    between atoms: _325  and  _327
REMARK  130  A    between atoms: _327  and  _328
REMARK  131  A    between atoms: _330  and  _332
REMARK  132  A    between atoms: _332  and  _333
REMARK  133  A    between atoms: _332  and  _335
REMARK  134  A    between atoms: _335  and  _336
REMARK  135  A    between atoms: _339  and  _341
REMARK  136  A    between atoms: _341  and  _342
REMARK  137  A    between atoms: _341  and  _344
REMARK  138  A    between atoms: _344  and  _345
REMARK  139  A    between atoms: _348  and  _350
REMARK  140  A    between atoms: _350  and  _351
REMARK  141  A    between atoms: _353  and  _355
REMARK  142  A    between atoms: _355  and  _356
REMARK  143  A    between atoms: _355  and  _358
REMARK  144  A    between atoms: _358  and  _359
REMARK  145  A    between atoms: _362  and  _364
REMARK  146  A    between atoms: _364  and  _365
REMARK  147  A    between atoms: _364  and  _367
REMARK  148  A    between atoms: _367  and  _368
REMARK  149  A    between atoms: _371  and  _373
REMARK  150  A    between atoms: _373  and  _374
REMARK  151  A    between atoms: _377  and  _379
REMARK  152  A    between atoms: _379  and  _380
REMARK  153  A    between atoms: _379  and  _382
REMARK  154  A    between atoms: _382  and  _383
REMARK  155  A    between atoms: _383  and  _384
REMARK  156  A    between atoms: _384  and  _385
REMARK  157  A    between atoms: _395  and  _396
REMARK  158  A    between atoms: _401  and  _403
REMARK  159  A    between atoms: _403  and  _404
REMARK  160  A    between atoms: _403  and  _406
REMARK  161  A    between atoms: _406  and  _407
REMARK  162  A    between atoms: _410  and  _412
REMARK  163  A    between atoms: _412  and  _413
REMARK  164  A    between atoms: _412  and  _415
REMARK  165  A    between atoms: _415  and  _416
REMARK  166  A    between atoms: _421  and  _422
REMARK  167  A    between atoms: _424  and  _426
REMARK  168  A    between atoms: _426  and  _427
REMARK  169  A    between atoms: _426  and  _429
REMARK  170  A    between atoms: _429  and  _430
REMARK  171  A    between atoms: _433  and  _435
REMARK  172  A    between atoms: _435  and  _436
REMARK  173  A    between atoms: _435  and  _438
REMARK  174  A    between atoms: _441  and  _443
REMARK  175  A    between atoms: _443  and  _444
REMARK  176  A    between atoms: _443  and  _446
REMARK  177  A    between atoms: _446  and  _447
REMARK  178  A    between atoms: _450  and  _452
REMARK  179  A    between atoms: _452  and  _453
REMARK  180  A    between atoms: _452  and  _455
REMARK  181  A    between atoms: _455  and  _456
REMARK  182  A    between atoms: _458  and  _460
REMARK  183  A    between atoms: _460  and  _461
REMARK  184  A    between atoms: _463  and  _465
REMARK  185  A    between atoms: _465  and  _466
REMARK  186  A    between atoms: _465  and  _468
REMARK  187  A    between atoms: _468  and  _469
REMARK  188  A    between atoms: _472  and  _474
REMARK  189  A    between atoms: _474  and  _475
REMARK  190  A    between atoms: _474  and  _477
REMARK  191  A    between atoms: _477  and  _478
REMARK  192  A    between atoms: _481  and  _483
REMARK  193  A    between atoms: _483  and  _484
REMARK  194  A    between atoms: _483  and  _486
REMARK  195  A    between atoms: _486  and  _487
REMARK  196  A    between atoms: _492  and  _494
REMARK  197  A    between atoms: _494  and  _495
REMARK  198  A    between atoms: _494  and  _497
REMARK  199  A    between atoms: _497  and  _498
REMARK  200  A    between atoms: _498  and  _499
REMARK  201  A    between atoms: _499  and  _500
REMARK  202  A    between atoms: _509  and  _511
REMARK  203  A    between atoms: _511  and  _512
REMARK  204  A    between atoms: _511  and  _514
REMARK  205  A    between atoms: _514  and  _515
REMARK  206  A    between atoms: _518  and  _520
REMARK  207  A    between atoms: _520  and  _521
REMARK  208  A    between atoms: _520  and  _523
REMARK  209  A    between atoms: _526  and  _528
REMARK  210  A    between atoms: _528  and  _529
REMARK  211  A    between atoms: _531  and  _533
REMARK  212  A    between atoms: _533  and  _534
REMARK  213  A    between atoms: _537  and  _539
REMARK  214  A    between atoms: _539  and  _540
REMARK  215  A    between atoms: _539  and  _542
REMARK                            x       y       z     vdW  Elec       q    Type
REMARK                         _______ _______ _______ _____ _____    ______ ____
ROOT
ATOM      1  O   HOH     1      37.938  11.381  22.788  0.00  0.00    +0.000 OA
ENDROOT
TORSDOF 0
REMARK  Name = ../refined-set-2016/4h3j/4h3j_pocket.pdb
REMARK  215 active torsions:
REMARK  status: ('A' for Active; 'I' for Inactive)
REMARK    1  A    between atoms: _1  and  _3
REMARK    2  A    between atoms: _3  and  _4
REMARK    3  A    between atoms: _3  and  _6
REMARK    4  A    between atoms: _6  and  _7
REMARK    5  A    between atoms: _7  and  _8
REMARK    6  A    between atoms: _8  and  _9
REMARK    7  A    between atoms: _9  and  _10
REMARK    8  A    between atoms: _14  and  _16
REMARK    9  A    between atoms: _16  and  _17
REMARK   10  A    between atoms: _16  and  _19
REMARK   11  A    between atoms: _19  and  _20
REMARK   12  A    between atoms: _22  and  _24
REMARK   13  A    between atoms: _24  and  _25
REMARK   14  A    between atoms: _27  and  _29
REMARK   15  A    between atoms: _29  and  _30
REMARK   16  A    between atoms: _29  and  _32
REMARK   17  A    between atoms: _32  and  _33
REMARK   18  A    between atoms: _33  and  _34
REMARK   19  A    between atoms: _39  and  _41
REMARK   20  A    between atoms: _41  and  _42
REMARK   21  A    between atoms: _44  and  _46
REMARK   22  A    between atoms: _46  and  _47
REMARK   23  A    between atoms: _46  and  _49
REMARK   24  A    between atoms: _49  and  _50
REMARK   25  A    between atoms: _55  and  _56
REMARK   26  A    between atoms: _58  and  _60
REMARK   27  A    between atoms: _60  and  _61
REMARK   28  A    between atoms: _60  and  _63
REMARK   29  A    between atoms: _63  and  _64
REMARK   30  A    between atoms: _67  and  _69
REMARK   31  A    between atoms: _69  and  _70
REMARK   32  A    between atoms: _69  and  _72
REMARK   33  A    between atoms: _75  and  _77
REMARK   34  A    between atoms: _77  and  _78
REMARK   35  A    between atoms: _77  and  _80
REMARK   36  A    between atoms: _80  and  _81
REMARK   37  A    between atoms: _84  and  _86
REMARK   38  A    between atoms: _86  and  _87
REMARK   39  A    between atoms: _86  and  _89
REMARK   40  A    between atoms: _89  and  _90
REMARK   41  A    between atoms: _93  and  _95
REMARK   42  A    between atoms: _95  and  _96
REMARK   43  A    between atoms: _98  and  _100
REMARK   44  A    between atoms: _100  and  _101
REMARK   45  A    between atoms: _100  and  _103
REMARK   46  A    between atoms: _103  and  _104
REMARK   47  A    between atoms: _106  and  _108
REMARK   48  A    between atoms: _108  and  _109
REMARK   49  A    between atoms: _108  and  _111
REMARK   50  A    between atoms: _111  and  _112
REMARK   51  A    between atoms: _114  and  _116
REMARK   52  A    between atoms: _116  and  _117
REMARK   53  A    between atoms: _116  and  _119
REMARK   54  A    between atoms: _119  and  _120
REMARK   55  A    between atoms: _125  and  _127
REMARK   56  A    between atoms: _127  and  _128
REMARK   57  A    between atoms: _127  and  _130
REMARK   58  A    between atoms: _130  and  _131
REMARK   59  A    between atoms: _137  and  _139
REMARK   60  A    between atoms: _139  and  _140
REMARK   61  A    between atoms: _143  and  _145
REMARK   62  A    between atoms: _145  and  _146
REMARK   63  A    between atoms: _145  and  _148
REMARK   64  A    between atoms: _151  and  _153
REMARK   65  A    between atoms: _153  and  _154
REMARK   66  A    between atoms: _153  and  _156
REMARK   67  A    between atoms: _156  and  _157
REMARK   68  A    between atoms: _162  and  _163
REMARK   69  A    between atoms: _165  and  _167
REMARK   70  A    between atoms: _167  and  _168
REMARK   71  A    between atoms: _167  and  _170
REMARK   72  A    between atoms: _174  and  _175
REMARK   73  A    between atoms: _180  and  _182
REMARK   74  A    between atoms: _182  and  _183
REMARK   75  A    between atoms: _182  and  _185
REMARK   76  A    between atoms: _185  and  _186
REMARK   77  A    between atoms: _191  and  _192
REMARK   78  A    between atoms: _194  and  _196
REMARK   79  A    between atoms: _196  and  _197
REMARK   80  A    between atoms: _196  and  _199
REMARK   81  A    between atoms: _199  and  _200
REMARK   82  A    between atoms: _203  and  _205
REMARK   83  A    between atoms: _205  and  _206
REMARK   84  A    between atoms: _205  and  _208
REMARK   85  A    between atoms: _208  and  _209
REMARK   86  A    between atoms: _209  and  _210
REMARK   87  A    between atoms: _215  and  _217
REMARK   88  A    between atoms: _217  and  _218
REMARK   89  A    between atoms: _220  and  _222
REMARK   90  A    between atoms: _222  and  _223
REMARK   91  A    between atoms: _222  and  _225
REMARK   92  A    between atoms: _225  and  _226
REMARK   93  A    between atoms: _226  and  _227
REMARK   94  A    between atoms: _227  and  _228
REMARK   95  A    between atoms: _228  and  _229
REMARK   96  A    between atoms: _233  and  _235
REMARK   97  A    between atoms: _235  and  _236
REMARK   98  A    between atoms: _235  and  _238
REMARK   99  A    between atoms: _238  and  _239
REMARK  100  A    between atoms: _249  and  _251
REMARK  101  A    between atoms: _251  and  _252
REMARK  102  A    between atoms: _255  and  _257
REMARK  103  A    between atoms: _257  and  _258
REMARK  104  A    between atoms: _257  and  _260
REMARK  105  A    between atoms: _260  and  _261
REMARK  106  A    between atoms: _261  and  _262
REMARK  107  A    between atoms: _262  and  _263
REMARK  108  A    between atoms: _263  and  _264
REMARK  109  A    between atoms: _268  and  _270
REMARK  110  A    between atoms: _270  and  _271
REMARK  111  A    between atoms: _270  and  _273
REMARK  112  A    between atoms: _273  and  _274
REMARK  113  A    between atoms: _280  and  _282
REMARK  114  A    between atoms: _282  and  _283
REMARK  115  A    between atoms: _282  and  _285
REMARK  116  A    between atoms: _285  and  _286
REMARK  117  A    between atoms: _292  and  _294
REMARK  118  A    between atoms: _294  and  _295
REMARK  119  A    between atoms: _294  and  _297
REMARK  120  A    between atoms: _297  and  _298
REMARK  121  A    between atoms: _301  and  _303
REMARK  122  A    between atoms: _303  and  _304
REMARK  123  A    between atoms: _303  and  _306
REMARK  124  A    between atoms: _306  and  _307
REMARK  125  A    between atoms: _309  and  _311
REMARK  126  A    between atoms: _311  and  _312
REMARK  127  A    between atoms: _311  and  _314
REMARK  128  A    between atoms: _314  and  _315
REMARK  129  A    between atoms: _325  and  _327
REMARK  130  A    between atoms: _327  and  _328
REMARK  131  A    between atoms: _330  and  _332
REMARK  132  A    between atoms: _332  and  _333
REMARK  133  A    between atoms: _332  and  _335
REMARK  134  A    between atoms: _335  and  _336
REMARK  135  A    between atoms: _339  and  _341
REMARK  136  A    between atoms: _341  and  _342
REMARK  137  A    between atoms: _341  and  _344
REMARK  138  A    between atoms: _344  and  _345
REMARK  139  A    between atoms: _348  and  _350
REMARK  140  A    between atoms: _350  and  _351
REMARK  141  A    between atoms: _353  and  _355
REMARK  142  A    between atoms: _355  and  _356
REMARK  143  A    between atoms: _355  and  _358
REMARK  144  A    between atoms: _358  and  _359
REMARK  145  A    between atoms: _362  and  _364
REMARK  146  A    between atoms: _364  and  _365
REMARK  147  A    between atoms: _364  and  _367
REMARK  148  A    between atoms: _367  and  _368
REMARK  149  A    between atoms: _371  and  _373
REMARK  150  A    between atoms: _373  and  _374
REMARK  151  A    between atoms: _377  and  _379
REMARK  152  A    between atoms: _379  and  _380
REMARK  153  A    between atoms: _379  and  _382
REMARK  154  A    between atoms: _382  and  _383
REMARK  155  A    between atoms: _383  and  _384
REMARK  156  A    between atoms: _384  and  _385
REMARK  157  A    between atoms: _395  and  _396
REMARK  158  A    between atoms: _401  and  _403
REMARK  159  A    between atoms: _403  and  _404
REMARK  160  A    between atoms: _403  and  _406
REMARK  161  A    between atoms: _406  and  _407
REMARK  162  A    between atoms: _410  and  _412
REMARK  163  A    between atoms: _412  and  _413
REMARK  164  A    between atoms: _412  and  _415
REMARK  165  A    between atoms: _415  and  _416
REMARK  166  A    between atoms: _421  and  _422
REMARK  167  A    between atoms: _424  and  _426
REMARK  168  A    between atoms: _426  and  _427
REMARK  169  A    between atoms: _426  and  _429
REMARK  170  A    between atoms: _429  and  _430
REMARK  171  A    between atoms: _433  and  _435
REMARK  172  A    between atoms: _435  and  _436
REMARK  173  A    between atoms: _435  and  _438
REMARK  174  A    between atoms: _441  and  _443
REMARK  175  A    between atoms: _443  and  _444
REMARK  176  A    between atoms: _443  and  _446
REMARK  177  A    between atoms: _446  and  _447
REMARK  178  A    between atoms: _450  and  _452
REMARK  179  A    between atoms: _452  and  _453
REMARK  180  A    between atoms: _452  and  _455
REMARK  181  A    between atoms: _455  and  _456
REMARK  182  A    between atoms: _458  and  _460
REMARK  183  A    between atoms: _460  and  _461
REMARK  184  A    between atoms: _463  and  _465
REMARK  185  A    between atoms: _465  and  _466
REMARK  186  A    between atoms: _465  and  _468
REMARK  187  A    between atoms: _468  and  _469
REMARK  188  A    between atoms: _472  and  _474
REMARK  189  A    between atoms: _474  and  _475
REMARK  190  A    between atoms: _474  and  _477
REMARK  191  A    between atoms: _477  and  _478
REMARK  192  A    between atoms: _481  and  _483
REMARK  193  A    between atoms: _483  and  _484
REMARK  194  A    between atoms: _483  and  _486
REMARK  195  A    between atoms: _486  and  _487
REMARK  196  A    between atoms: _492  and  _494
REMARK  197  A    between atoms: _494  and  _495
REMARK  198  A    between atoms: _494  and  _497
REMARK  199  A    between atoms: _497  and  _498
REMARK  200  A    between atoms: _498  and  _499
REMARK  201  A    between atoms: _499  and  _500
REMARK  202  A    between atoms: _509  and  _511
REMARK  203  A    between atoms: _511  and  _512
REMARK  204  A    between atoms: _511  and  _514
REMARK  205  A    between atoms: _514  and  _515
REMARK  206  A    between atoms: _518  and  _520
REMARK  207  A    between atoms: _520  and  _521
REMARK  208  A    between atoms: _520  and  _523
REMARK  209  A    between atoms: _526  and  _528
REMARK  210  A    between atoms: _528  and  _529
REMARK  211  A    between atoms: _531  and  _533
REMARK  212  A    between atoms: _533  and  _534
REMARK  213  A    between atoms: _537  and  _539
REMARK  214  A    between atoms: _539  and  _540
REMARK  215  A    between atoms: _539  and  _542
REMARK                            x       y       z     vdW  Elec       q    Type
REMARK                         _______ _______ _______ _____ _____    ______ ____
ROOT
ATOM      1  O   HOH     1      31.870  13.331  18.088  0.00  0.00    +0.000 OA
ENDROOT
TORSDOF 0
REMARK  Name = ../refined-set-2016/4h3j/4h3j_pocket.pdb
REMARK  215 active torsions:
REMARK  status: ('A' for Active; 'I' for Inactive)
REMARK    1  A    between atoms: _1  and  _3
REMARK    2  A    between atoms: _3  and  _4
REMARK    3  A    between atoms: _3  and  _6
REMARK    4  A    between atoms: _6  and  _7
REMARK    5  A    between atoms: _7  and  _8
REMARK    6  A    between atoms: _8  and  _9
REMARK    7  A    between atoms: _9  and  _10
REMARK    8  A    between atoms: _14  and  _16
REMARK    9  A    between atoms: _16  and  _17
REMARK   10  A    between atoms: _16  and  _19
REMARK   11  A    between atoms: _19  and  _20
REMARK   12  A    between atoms: _22  and  _24
REMARK   13  A    between atoms: _24  and  _25
REMARK   14  A    between atoms: _27  and  _29
REMARK   15  A    between atoms: _29  and  _30
REMARK   16  A    between atoms: _29  and  _32
REMARK   17  A    between atoms: _32  and  _33
REMARK   18  A    between atoms: _33  and  _34
REMARK   19  A    between atoms: _39  and  _41
REMARK   20  A    between atoms: _41  and  _42
REMARK   21  A    between atoms: _44  and  _46
REMARK   22  A    between atoms: _46  and  _47
REMARK   23  A    between atoms: _46  and  _49
REMARK   24  A    between atoms: _49  and  _50
REMARK   25  A    between atoms: _55  and  _56
REMARK   26  A    between atoms: _58  and  _60
REMARK   27  A    between atoms: _60  and  _61
REMARK   28  A    between atoms: _60  and  _63
REMARK   29  A    between atoms: _63  and  _64
REMARK   30  A    between atoms: _67  and  _69
REMARK   31  A    between atoms: _69  and  _70
REMARK   32  A    between atoms: _69  and  _72
REMARK   33  A    between atoms: _75  and  _77
REMARK   34  A    between atoms: _77  and  _78
REMARK   35  A    between atoms: _77  and  _80
REMARK   36  A    between atoms: _80  and  _81
REMARK   37  A    between atoms: _84  and  _86
REMARK   38  A    between atoms: _86  and  _87
REMARK   39  A    between atoms: _86  and  _89
REMARK   40  A    between atoms: _89  and  _90
REMARK   41  A    between atoms: _93  and  _95
REMARK   42  A    between atoms: _95  and  _96
REMARK   43  A    between atoms: _98  and  _100
REMARK   44  A    between atoms: _100  and  _101
REMARK   45  A    between atoms: _100  and  _103
REMARK   46  A    between atoms: _103  and  _104
REMARK   47  A    between atoms: _106  and  _108
REMARK   48  A    between atoms: _108  and  _109
REMARK   49  A    between atoms: _108  and  _111
REMARK   50  A    between atoms: _111  and  _112
REMARK   51  A    between atoms: _114  and  _116
REMARK   52  A    between atoms: _116  and  _117
REMARK   53  A    between atoms: _116  and  _119
REMARK   54  A    between atoms: _119  and  _120
REMARK   55  A    between atoms: _125  and  _127
REMARK   56  A    between atoms: _127  and  _128
REMARK   57  A    between atoms: _127  and  _130
REMARK   58  A    between atoms: _130  and  _131
REMARK   59  A    between atoms: _137  and  _139
REMARK   60  A    between atoms: _139  and  _140
REMARK   61  A    between atoms: _143  and  _145
REMARK   62  A    between atoms: _145  and  _146
REMARK   63  A    between atoms: _145  and  _148
REMARK   64  A    between atoms: _151  and  _153
REMARK   65  A    between atoms: _153  and  _154
REMARK   66  A    between atoms: _153  and  _156
REMARK   67  A    between atoms: _156  and  _157
REMARK   68  A    between atoms: _162  and  _163
REMARK   69  A    between atoms: _165  and  _167
REMARK   70  A    between atoms: _167  and  _168
REMARK   71  A    between atoms: _167  and  _170
REMARK   72  A    between atoms: _174  and  _175
REMARK   73  A    between atoms: _180  and  _182
REMARK   74  A    between atoms: _182  and  _183
REMARK   75  A    between atoms: _182  and  _185
REMARK   76  A    between atoms: _185  and  _186
REMARK   77  A    between atoms: _191  and  _192
REMARK   78  A    between atoms: _194  and  _196
REMARK   79  A    between atoms: _196  and  _197
REMARK   80  A    between atoms: _196  and  _199
REMARK   81  A    between atoms: _199  and  _200
REMARK   82  A    between atoms: _203  and  _205
REMARK   83  A    between atoms: _205  and  _206
REMARK   84  A    between atoms: _205  and  _208
REMARK   85  A    between atoms: _208  and  _209
REMARK   86  A    between atoms: _209  and  _210
REMARK   87  A    between atoms: _215  and  _217
REMARK   88  A    between atoms: _217  and  _218
REMARK   89  A    between atoms: _220  and  _222
REMARK   90  A    between atoms: _222  and  _223
REMARK   91  A    between atoms: _222  and  _225
REMARK   92  A    between atoms: _225  and  _226
REMARK   93  A    between atoms: _226  and  _227
REMARK   94  A    between atoms: _227  and  _228
REMARK   95  A    between atoms: _228  and  _229
REMARK   96  A    between atoms: _233  and  _235
REMARK   97  A    between atoms: _235  and  _236
REMARK   98  A    between atoms: _235  and  _238
REMARK   99  A    between atoms: _238  and  _239
REMARK  100  A    between atoms: _249  and  _251
REMARK  101  A    between atoms: _251  and  _252
REMARK  102  A    between atoms: _255  and  _257
REMARK  103  A    between atoms: _257  and  _258
REMARK  104  A    between atoms: _257  and  _260
REMARK  105  A    between atoms: _260  and  _261
REMARK  106  A    between atoms: _261  and  _262
REMARK  107  A    between atoms: _262  and  _263
REMARK  108  A    between atoms: _263  and  _264
REMARK  109  A    between atoms: _268  and  _270
REMARK  110  A    between atoms: _270  and  _271
REMARK  111  A    between atoms: _270  and  _273
REMARK  112  A    between atoms: _273  and  _274
REMARK  113  A    between atoms: _280  and  _282
REMARK  114  A    between atoms: _282  and  _283
REMARK  115  A    between atoms: _282  and  _285
REMARK  116  A    between atoms: _285  and  _286
REMARK  117  A    between atoms: _292  and  _294
REMARK  118  A    between atoms: _294  and  _295
REMARK  119  A    between atoms: _294  and  _297
REMARK  120  A    between atoms: _297  and  _298
REMARK  121  A    between atoms: _301  and  _303
REMARK  122  A    between atoms: _303  and  _304
REMARK  123  A    between atoms: _303  and  _306
REMARK  124  A    between atoms: _306  and  _307
REMARK  125  A    between atoms: _309  and  _311
REMARK  126  A    between atoms: _311  and  _312
REMARK  127  A    between atoms: _311  and  _314
REMARK  128  A    between atoms: _314  and  _315
REMARK  129  A    between atoms: _325  and  _327
REMARK  130  A    between atoms: _327  and  _328
REMARK  131  A    between atoms: _330  and  _332
REMARK  132  A    between atoms: _332  and  _333
REMARK  133  A    between atoms: _332  and  _335
REMARK  134  A    between atoms: _335  and  _336
REMARK  135  A    between atoms: _339  and  _341
REMARK  136  A    between atoms: _341  and  _342
REMARK  137  A    between atoms: _341  and  _344
REMARK  138  A    between atoms: _344  and  _345
REMARK  139  A    between atoms: _348  and  _350
REMARK  140  A    between atoms: _350  and  _351
REMARK  141  A    between atoms: _353  and  _355
REMARK  142  A    between atoms: _355  and  _356
REMARK  143  A    between atoms: _355  and  _358
REMARK  144  A    between atoms: _358  and  _359
REMARK  145  A    between atoms: _362  and  _364
REMARK  146  A    between atoms: _364  and  _365
REMARK  147  A    between atoms: _364  and  _367
REMARK  148  A    between atoms: _367  and  _368
REMARK  149  A    between atoms: _371  and  _373
REMARK  150  A    between atoms: _373  and  _374
REMARK  151  A    between atoms: _377  and  _379
REMARK  152  A    between atoms: _379  and  _380
REMARK  153  A    between atoms: _379  and  _382
REMARK  154  A    between atoms: _382  and  _383
REMARK  155  A    between atoms: _383  and  _384
REMARK  156  A    between atoms: _384  and  _385
REMARK  157  A    between atoms: _395  and  _396
REMARK  158  A    between atoms: _401  and  _403
REMARK  159  A    between atoms: _403  and  _404
REMARK  160  A    between atoms: _403  and  _406
REMARK  161  A    between atoms: _406  and  _407
REMARK  162  A    between atoms: _410  and  _412
REMARK  163  A    between atoms: _412  and  _413
REMARK  164  A    between atoms: _412  and  _415
REMARK  165  A    between atoms: _415  and  _416
REMARK  166  A    between atoms: _421  and  _422
REMARK  167  A    between atoms: _424  and  _426
REMARK  168  A    between atoms: _426  and  _427
REMARK  169  A    between atoms: _426  and  _429
REMARK  170  A    between atoms: _429  and  _430
REMARK  171  A    between atoms: _433  and  _435
REMARK  172  A    between atoms: _435  and  _436
REMARK  173  A    between atoms: _435  and  _438
REMARK  174  A    between atoms: _441  and  _443
REMARK  175  A    between atoms: _443  and  _444
REMARK  176  A    between atoms: _443  and  _446
REMARK  177  A    between atoms: _446  and  _447
REMARK  178  A    between atoms: _450  and  _452
REMARK  179  A    between atoms: _452  and  _453
REMARK  180  A    between atoms: _452  and  _455
REMARK  181  A    between atoms: _455  and  _456
REMARK  182  A    between atoms: _458  and  _460
REMARK  183  A    between atoms: _460  and  _461
REMARK  184  A    between atoms: _463  and  _465
REMARK  185  A    between atoms: _465  and  _466
REMARK  186  A    between atoms: _465  and  _468
REMARK  187  A    between atoms: _468  and  _469
REMARK  188  A    between atoms: _472  and  _474
REMARK  189  A    between atoms: _474  and  _475
REMARK  190  A    between atoms: _474  and  _477
REMARK  191  A    between atoms: _477  and  _478
REMARK  192  A    between atoms: _481  and  _483
REMARK  193  A    between atoms: _483  and  _484
REMARK  194  A    between atoms: _483  and  _486
REMARK  195  A    between atoms: _486  and  _487
REMARK  196  A    between atoms: _492  and  _494
REMARK  197  A    between atoms: _494  and  _495
REMARK  198  A    between atoms: _494  and  _497
REMARK  199  A    between atoms: _497  and  _498
REMARK  200  A    between atoms: _498  and  _499
REMARK  201  A    between atoms: _499  and  _500
REMARK  202  A    between atoms: _509  and  _511
REMARK  203  A    between atoms: _511  and  _512
REMARK  204  A    between atoms: _511  and  _514
REMARK  205  A    between atoms: _514  and  _515
REMARK  206  A    between atoms: _518  and  _520
REMARK  207  A    between atoms: _520  and  _521
REMARK  208  A    between atoms: _520  and  _523
REMARK  209  A    between atoms: _526  and  _528
REMARK  210  A    between atoms: _528  and  _529
REMARK  211  A    between atoms: _531  and  _533
REMARK  212  A    between atoms: _533  and  _534
REMARK  213  A    between atoms: _537  and  _539
REMARK  214  A    between atoms: _539  and  _540
REMARK  215  A    between atoms: _539  and  _542
REMARK                            x       y       z     vdW  Elec       q    Type
REMARK                         _______ _______ _______ _____ _____    ______ ____
ROOT
ATOM      1  O   HOH     1      28.504  10.090  12.125  0.00  0.00    +0.000 OA
ENDROOT
TORSDOF 0
REMARK  Name = ../refined-set-2016/4h3j/4h3j_pocket.pdb
REMARK  215 active torsions:
REMARK  status: ('A' for Active; 'I' for Inactive)
REMARK    1  A    between atoms: _1  and  _3
REMARK    2  A    between atoms: _3  and  _4
REMARK    3  A    between atoms: _3  and  _6
REMARK    4  A    between atoms: _6  and  _7
REMARK    5  A    between atoms: _7  and  _8
REMARK    6  A    between atoms: _8  and  _9
REMARK    7  A    between atoms: _9  and  _10
REMARK    8  A    between atoms: _14  and  _16
REMARK    9  A    between atoms: _16  and  _17
REMARK   10  A    between atoms: _16  and  _19
REMARK   11  A    between atoms: _19  and  _20
REMARK   12  A    between atoms: _22  and  _24
REMARK   13  A    between atoms: _24  and  _25
REMARK   14  A    between atoms: _27  and  _29
REMARK   15  A    between atoms: _29  and  _30
REMARK   16  A    between atoms: _29  and  _32
REMARK   17  A    between atoms: _32  and  _33
REMARK   18  A    between atoms: _33  and  _34
REMARK   19  A    between atoms: _39  and  _41
REMARK   20  A    between atoms: _41  and  _42
REMARK   21  A    between atoms: _44  and  _46
REMARK   22  A    between atoms: _46  and  _47
REMARK   23  A    between atoms: _46  and  _49
REMARK   24  A    between atoms: _49  and  _50
REMARK   25  A    between atoms: _55  and  _56
REMARK   26  A    between atoms: _58  and  _60
REMARK   27  A    between atoms: _60  and  _61
REMARK   28  A    between atoms: _60  and  _63
REMARK   29  A    between atoms: _63  and  _64
REMARK   30  A    between atoms: _67  and  _69
REMARK   31  A    between atoms: _69  and  _70
REMARK   32  A    between atoms: _69  and  _72
REMARK   33  A    between atoms: _75  and  _77
REMARK   34  A    between atoms: _77  and  _78
REMARK   35  A    between atoms: _77  and  _80
REMARK   36  A    between atoms: _80  and  _81
REMARK   37  A    between atoms: _84  and  _86
REMARK   38  A    between atoms: _86  and  _87
REMARK   39  A    between atoms: _86  and  _89
REMARK   40  A    between atoms: _89  and  _90
REMARK   41  A    between atoms: _93  and  _95
REMARK   42  A    between atoms: _95  and  _96
REMARK   43  A    between atoms: _98  and  _100
REMARK   44  A    between atoms: _100  and  _101
REMARK   45  A    between atoms: _100  and  _103
REMARK   46  A    between atoms: _103  and  _104
REMARK   47  A    between atoms: _106  and  _108
REMARK   48  A    between atoms: _108  and  _109
REMARK   49  A    between atoms: _108  and  _111
REMARK   50  A    between atoms: _111  and  _112
REMARK   51  A    between atoms: _114  and  _116
REMARK   52  A    between atoms: _116  and  _117
REMARK   53  A    between atoms: _116  and  _119
REMARK   54  A    between atoms: _119  and  _120
REMARK   55  A    between atoms: _125  and  _127
REMARK   56  A    between atoms: _127  and  _128
REMARK   57  A    between atoms: _127  and  _130
REMARK   58  A    between atoms: _130  and  _131
REMARK   59  A    between atoms: _137  and  _139
REMARK   60  A    between atoms: _139  and  _140
REMARK   61  A    between atoms: _143  and  _145
REMARK   62  A    between atoms: _145  and  _146
REMARK   63  A    between atoms: _145  and  _148
REMARK   64  A    between atoms: _151  and  _153
REMARK   65  A    between atoms: _153  and  _154
REMARK   66  A    between atoms: _153  and  _156
REMARK   67  A    between atoms: _156  and  _157
REMARK   68  A    between atoms: _162  and  _163
REMARK   69  A    between atoms: _165  and  _167
REMARK   70  A    between atoms: _167  and  _168
REMARK   71  A    between atoms: _167  and  _170
REMARK   72  A    between atoms: _174  and  _175
REMARK   73  A    between atoms: _180  and  _182
REMARK   74  A    between atoms: _182  and  _183
REMARK   75  A    between atoms: _182  and  _185
REMARK   76  A    between atoms: _185  and  _186
REMARK   77  A    between atoms: _191  and  _192
REMARK   78  A    between atoms: _194  and  _196
REMARK   79  A    between atoms: _196  and  _197
REMARK   80  A    between atoms: _196  and  _199
REMARK   81  A    between atoms: _199  and  _200
REMARK   82  A    between atoms: _203  and  _205
REMARK   83  A    between atoms: _205  and  _206
REMARK   84  A    between atoms: _205  and  _208
REMARK   85  A    between atoms: _208  and  _209
REMARK   86  A    between atoms: _209  and  _210
REMARK   87  A    between atoms: _215  and  _217
REMARK   88  A    between atoms: _217  and  _218
REMARK   89  A    between atoms: _220  and  _222
REMARK   90  A    between atoms: _222  and  _223
REMARK   91  A    between atoms: _222  and  _225
REMARK   92  A    between atoms: _225  and  _226
REMARK   93  A    between atoms: _226  and  _227
REMARK   94  A    between atoms: _227  and  _228
REMARK   95  A    between atoms: _228  and  _229
REMARK   96  A    between atoms: _233  and  _235
REMARK   97  A    between atoms: _235  and  _236
REMARK   98  A    between atoms: _235  and  _238
REMARK   99  A    between atoms: _238  and  _239
REMARK  100  A    between atoms: _249  and  _251
REMARK  101  A    between atoms: _251  and  _252
REMARK  102  A    between atoms: _255  and  _257
REMARK  103  A    between atoms: _257  and  _258
REMARK  104  A    between atoms: _257  and  _260
REMARK  105  A    between atoms: _260  and  _261
REMARK  106  A    between atoms: _261  and  _262
REMARK  107  A    between atoms: _262  and  _263
REMARK  108  A    between atoms: _263  and  _264
REMARK  109  A    between atoms: _268  and  _270
REMARK  110  A    between atoms: _270  and  _271
REMARK  111  A    between atoms: _270  and  _273
REMARK  112  A    between atoms: _273  and  _274
REMARK  113  A    between atoms: _280  and  _282
REMARK  114  A    between atoms: _282  and  _283
REMARK  115  A    between atoms: _282  and  _285
REMARK  116  A    between atoms: _285  and  _286
REMARK  117  A    between atoms: _292  and  _294
REMARK  118  A    between atoms: _294  and  _295
REMARK  119  A    between atoms: _294  and  _297
REMARK  120  A    between atoms: _297  and  _298
REMARK  121  A    between atoms: _301  and  _303
REMARK  122  A    between atoms: _303  and  _304
REMARK  123  A    between atoms: _303  and  _306
REMARK  124  A    between atoms: _306  and  _307
REMARK  125  A    between atoms: _309  and  _311
REMARK  126  A    between atoms: _311  and  _312
REMARK  127  A    between atoms: _311  and  _314
REMARK  128  A    between atoms: _314  and  _315
REMARK  129  A    between atoms: _325  and  _327
REMARK  130  A    between atoms: _327  and  _328
REMARK  131  A    between atoms: _330  and  _332
REMARK  132  A    between atoms: _332  and  _333
REMARK  133  A    between atoms: _332  and  _335
REMARK  134  A    between atoms: _335  and  _336
REMARK  135  A    between atoms: _339  and  _341
REMARK  136  A    between atoms: _341  and  _342
REMARK  137  A    between atoms: _341  and  _344
REMARK  138  A    between atoms: _344  and  _345
REMARK  139  A    between atoms: _348  and  _350
REMARK  140  A    between atoms: _350  and  _351
REMARK  141  A    between atoms: _353  and  _355
REMARK  142  A    between atoms: _355  and  _356
REMARK  143  A    between atoms: _355  and  _358
REMARK  144  A    between atoms: _358  and  _359
REMARK  145  A    between atoms: _362  and  _364
REMARK  146  A    between atoms: _364  and  _365
REMARK  147  A    between atoms: _364  and  _367
REMARK  148  A    between atoms: _367  and  _368
REMARK  149  A    between atoms: _371  and  _373
REMARK  150  A    between atoms: _373  and  _374
REMARK  151  A    between atoms: _377  and  _379
REMARK  152  A    between atoms: _379  and  _380
REMARK  153  A    between atoms: _379  and  _382
REMARK  154  A    between atoms: _382  and  _383
REMARK  155  A    between atoms: _383  and  _384
REMARK  156  A    between atoms: _384  and  _385
REMARK  157  A    between atoms: _395  and  _396
REMARK  158  A    between atoms: _401  and  _403
REMARK  159  A    between atoms: _403  and  _404
REMARK  160  A    between atoms: _403  and  _406
REMARK  161  A    between atoms: _406  and  _407
REMARK  162  A    between atoms: _410  and  _412
REMARK  163  A    between atoms: _412  and  _413
REMARK  164  A    between atoms: _412  and  _415
REMARK  165  A    between atoms: _415  and  _416
REMARK  166  A    between atoms: _421  and  _422
REMARK  167  A    between atoms: _424  and  _426
REMARK  168  A    between atoms: _426  and  _427
REMARK  169  A    between atoms: _426  and  _429
REMARK  170  A    between atoms: _429  and  _430
REMARK  171  A    between atoms: _433  and  _435
REMARK  172  A    between atoms: _435  and  _436
REMARK  173  A    between atoms: _435  and  _438
REMARK  174  A    between atoms: _441  and  _443
REMARK  175  A    between atoms: _443  and  _444
REMARK  176  A    between atoms: _443  and  _446
REMARK  177  A    between atoms: _446  and  _447
REMARK  178  A    between atoms: _450  and  _452
REMARK  179  A    between atoms: _452  and  _453
REMARK  180  A    between atoms: _452  and  _455
REMARK  181  A    between atoms: _455  and  _456
REMARK  182  A    between atoms: _458  and  _460
REMARK  183  A    between atoms: _460  and  _461
REMARK  184  A    between atoms: _463  and  _465
REMARK  185  A    between atoms: _465  and  _466
REMARK  186  A    between atoms: _465  and  _468
REMARK  187  A    between atoms: _468  and  _469
REMARK  188  A    between atoms: _472  and  _474
REMARK  189  A    between atoms: _474  and  _475
REMARK  190  A    between atoms: _474  and  _477
REMARK  191  A    between atoms: _477  and  _478
REMARK  192  A    between atoms: _481  and  _483
REMARK  193  A    between atoms: _483  and  _484
REMARK  194  A    between atoms: _483  and  _486
REMARK  195  A    between atoms: _486  and  _487
REMARK  196  A    between atoms: _492  and  _494
REMARK  197  A    between atoms: _494  and  _495
REMARK  198  A    between atoms: _494  and  _497
REMARK  199  A    between atoms: _497  and  _498
REMARK  200  A    between atoms: _498  and  _499
REMARK  201  A    between atoms: _499  and  _500
REMARK  202  A    between atoms: _509  and  _511
REMARK  203  A    between atoms: _511  and  _512
REMARK  204  A    between atoms: _511  and  _514
REMARK  205  A    between atoms: _514  and  _515
REMARK  206  A    between atoms: _518  and  _520
REMARK  207  A    between atoms: _520  and  _521
REMARK  208  A    between atoms: _520  and  _523
REMARK  209  A    between atoms: _526  and  _528
REMARK  210  A    between atoms: _528  and  _529
REMARK  211  A    between atoms: _531  and  _533
REMARK  212  A    between atoms: _533  and  _534
REMARK  213  A    between atoms: _537  and  _539
REMARK  214  A    between atoms: _539  and  _540
REMARK  215  A    between atoms: _539  and  _542
REMARK                            x       y       z     vdW  Elec       q    Type
REMARK                         _______ _______ _______ _____ _____    ______ ____
ROOT
ATOM      1  O   HOH     1      32.175   6.479  17.245  0.00  0.00    +0.000 OA
ENDROOT
TORSDOF 0
REMARK  Name = ../refined-set-2016/4h3j/4h3j_pocket.pdb
REMARK  215 active torsions:
REMARK  status: ('A' for Active; 'I' for Inactive)
REMARK    1  A    between atoms: _1  and  _3
REMARK    2  A    between atoms: _3  and  _4
REMARK    3  A    between atoms: _3  and  _6
REMARK    4  A    between atoms: _6  and  _7
REMARK    5  A    between atoms: _7  and  _8
REMARK    6  A    between atoms: _8  and  _9
REMARK    7  A    between atoms: _9  and  _10
REMARK    8  A    between atoms: _14  and  _16
REMARK    9  A    between atoms: _16  and  _17
REMARK   10  A    between atoms: _16  and  _19
REMARK   11  A    between atoms: _19  and  _20
REMARK   12  A    between atoms: _22  and  _24
REMARK   13  A    between atoms: _24  and  _25
REMARK   14  A    between atoms: _27  and  _29
REMARK   15  A    between atoms: _29  and  _30
REMARK   16  A    between atoms: _29  and  _32
REMARK   17  A    between atoms: _32  and  _33
REMARK   18  A    between atoms: _33  and  _34
REMARK   19  A    between atoms: _39  and  _41
REMARK   20  A    between atoms: _41  and  _42
REMARK   21  A    between atoms: _44  and  _46
REMARK   22  A    between atoms: _46  and  _47
REMARK   23  A    between atoms: _46  and  _49
REMARK   24  A    between atoms: _49  and  _50
REMARK   25  A    between atoms: _55  and  _56
REMARK   26  A    between atoms: _58  and  _60
REMARK   27  A    between atoms: _60  and  _61
REMARK   28  A    between atoms: _60  and  _63
REMARK   29  A    between atoms: _63  and  _64
REMARK   30  A    between atoms: _67  and  _69
REMARK   31  A    between atoms: _69  and  _70
REMARK   32  A    between atoms: _69  and  _72
REMARK   33  A    between atoms: _75  and  _77
REMARK   34  A    between atoms: _77  and  _78
REMARK   35  A    between atoms: _77  and  _80
REMARK   36  A    between atoms: _80  and  _81
REMARK   37  A    between atoms: _84  and  _86
REMARK   38  A    between atoms: _86  and  _87
REMARK   39  A    between atoms: _86  and  _89
REMARK   40  A    between atoms: _89  and  _90
REMARK   41  A    between atoms: _93  and  _95
REMARK   42  A    between atoms: _95  and  _96
REMARK   43  A    between atoms: _98  and  _100
REMARK   44  A    between atoms: _100  and  _101
REMARK   45  A    between atoms: _100  and  _103
REMARK   46  A    between atoms: _103  and  _104
REMARK   47  A    between atoms: _106  and  _108
REMARK   48  A    between atoms: _108  and  _109
REMARK   49  A    between atoms: _108  and  _111
REMARK   50  A    between atoms: _111  and  _112
REMARK   51  A    between atoms: _114  and  _116
REMARK   52  A    between atoms: _116  and  _117
REMARK   53  A    between atoms: _116  and  _119
REMARK   54  A    between atoms: _119  and  _120
REMARK   55  A    between atoms: _125  and  _127
REMARK   56  A    between atoms: _127  and  _128
REMARK   57  A    between atoms: _127  and  _130
REMARK   58  A    between atoms: _130  and  _131
REMARK   59  A    between atoms: _137  and  _139
REMARK   60  A    between atoms: _139  and  _140
REMARK   61  A    between atoms: _143  and  _145
REMARK   62  A    between atoms: _145  and  _146
REMARK   63  A    between atoms: _145  and  _148
REMARK   64  A    between atoms: _151  and  _153
REMARK   65  A    between atoms: _153  and  _154
REMARK   66  A    between atoms: _153  and  _156
REMARK   67  A    between atoms: _156  and  _157
REMARK   68  A    between atoms: _162  and  _163
REMARK   69  A    between atoms: _165  and  _167
REMARK   70  A    between atoms: _167  and  _168
REMARK   71  A    between atoms: _167  and  _170
REMARK   72  A    between atoms: _174  and  _175
REMARK   73  A    between atoms: _180  and  _182
REMARK   74  A    between atoms: _182  and  _183
REMARK   75  A    between atoms: _182  and  _185
REMARK   76  A    between atoms: _185  and  _186
REMARK   77  A    between atoms: _191  and  _192
REMARK   78  A    between atoms: _194  and  _196
REMARK   79  A    between atoms: _196  and  _197
REMARK   80  A    between atoms: _196  and  _199
REMARK   81  A    between atoms: _199  and  _200
REMARK   82  A    between atoms: _203  and  _205
REMARK   83  A    between atoms: _205  and  _206
REMARK   84  A    between atoms: _205  and  _208
REMARK   85  A    between atoms: _208  and  _209
REMARK   86  A    between atoms: _209  and  _210
REMARK   87  A    between atoms: _215  and  _217
REMARK   88  A    between atoms: _217  and  _218
REMARK   89  A    between atoms: _220  and  _222
REMARK   90  A    between atoms: _222  and  _223
REMARK   91  A    between atoms: _222  and  _225
REMARK   92  A    between atoms: _225  and  _226
REMARK   93  A    between atoms: _226  and  _227
REMARK   94  A    between atoms: _227  and  _228
REMARK   95  A    between atoms: _228  and  _229
REMARK   96  A    between atoms: _233  and  _235
REMARK   97  A    between atoms: _235  and  _236
REMARK   98  A    between atoms: _235  and  _238
REMARK   99  A    between atoms: _238  and  _239
REMARK  100  A    between atoms: _249  and  _251
REMARK  101  A    between atoms: _251  and  _252
REMARK  102  A    between atoms: _255  and  _257
REMARK  103  A    between atoms: _257  and  _258
REMARK  104  A    between atoms: _257  and  _260
REMARK  105  A    between atoms: _260  and  _261
REMARK  106  A    between atoms: _261  and  _262
REMARK  107  A    between atoms: _262  and  _263
REMARK  108  A    between atoms: _263  and  _264
REMARK  109  A    between atoms: _268  and  _270
REMARK  110  A    between atoms: _270  and  _271
REMARK  111  A    between atoms: _270  and  _273
REMARK  112  A    between atoms: _273  and  _274
REMARK  113  A    between atoms: _280  and  _282
REMARK  114  A    between atoms: _282  and  _283
REMARK  115  A    between atoms: _282  and  _285
REMARK  116  A    between atoms: _285  and  _286
REMARK  117  A    between atoms: _292  and  _294
REMARK  118  A    between atoms: _294  and  _295
REMARK  119  A    between atoms: _294  and  _297
REMARK  120  A    between atoms: _297  and  _298
REMARK  121  A    between atoms: _301  and  _303
REMARK  122  A    between atoms: _303  and  _304
REMARK  123  A    between atoms: _303  and  _306
REMARK  124  A    between atoms: _306  and  _307
REMARK  125  A    between atoms: _309  and  _311
REMARK  126  A    between atoms: _311  and  _312
REMARK  127  A    between atoms: _311  and  _314
REMARK  128  A    between atoms: _314  and  _315
REMARK  129  A    between atoms: _325  and  _327
REMARK  130  A    between atoms: _327  and  _328
REMARK  131  A    between atoms: _330  and  _332
REMARK  132  A    between atoms: _332  and  _333
REMARK  133  A    between atoms: _332  and  _335
REMARK  134  A    between atoms: _335  and  _336
REMARK  135  A    between atoms: _339  and  _341
REMARK  136  A    between atoms: _341  and  _342
REMARK  137  A    between atoms: _341  and  _344
REMARK  138  A    between atoms: _344  and  _345
REMARK  139  A    between atoms: _348  and  _350
REMARK  140  A    between atoms: _350  and  _351
REMARK  141  A    between atoms: _353  and  _355
REMARK  142  A    between atoms: _355  and  _356
REMARK  143  A    between atoms: _355  and  _358
REMARK  144  A    between atoms: _358  and  _359
REMARK  145  A    between atoms: _362  and  _364
REMARK  146  A    between atoms: _364  and  _365
REMARK  147  A    between atoms: _364  and  _367
REMARK  148  A    between atoms: _367  and  _368
REMARK  149  A    between atoms: _371  and  _373
REMARK  150  A    between atoms: _373  and  _374
REMARK  151  A    between atoms: _377  and  _379
REMARK  152  A    between atoms: _379  and  _380
REMARK  153  A    between atoms: _379  and  _382
REMARK  154  A    between atoms: _382  and  _383
REMARK  155  A    between atoms: _383  and  _384
REMARK  156  A    between atoms: _384  and  _385
REMARK  157  A    between atoms: _395  and  _396
REMARK  158  A    between atoms: _401  and  _403
REMARK  159  A    between atoms: _403  and  _404
REMARK  160  A    between atoms: _403  and  _406
REMARK  161  A    between atoms: _406  and  _407
REMARK  162  A    between atoms: _410  and  _412
REMARK  163  A    between atoms: _412  and  _413
REMARK  164  A    between atoms: _412  and  _415
REMARK  165  A    between atoms: _415  and  _416
REMARK  166  A    between atoms: _421  and  _422
REMARK  167  A    between atoms: _424  and  _426
REMARK  168  A    between atoms: _426  and  _427
REMARK  169  A    between atoms: _426  and  _429
REMARK  170  A    between atoms: _429  and  _430
REMARK  171  A    between atoms: _433  and  _435
REMARK  172  A    between atoms: _435  and  _436
REMARK  173  A    between atoms: _435  and  _438
REMARK  174  A    between atoms: _441  and  _443
REMARK  175  A    between atoms: _443  and  _444
REMARK  176  A    between atoms: _443  and  _446
REMARK  177  A    between atoms: _446  and  _447
REMARK  178  A    between atoms: _450  and  _452
REMARK  179  A    between atoms: _452  and  _453
REMARK  180  A    between atoms: _452  and  _455
REMARK  181  A    between atoms: _455  and  _456
REMARK  182  A    between atoms: _458  and  _460
REMARK  183  A    between atoms: _460  and  _461
REMARK  184  A    between atoms: _463  and  _465
REMARK  185  A    between atoms: _465  and  _466
REMARK  186  A    between atoms: _465  and  _468
REMARK  187  A    between atoms: _468  and  _469
REMARK  188  A    between atoms: _472  and  _474
REMARK  189  A    between atoms: _474  and  _475
REMARK  190  A    between atoms: _474  and  _477
REMARK  191  A    between atoms: _477  and  _478
REMARK  192  A    between atoms: _481  and  _483
REMARK  193  A    between atoms: _483  and  _484
REMARK  194  A    between atoms: _483  and  _486
REMARK  195  A    between atoms: _486  and  _487
REMARK  196  A    between atoms: _492  and  _494
REMARK  197  A    between atoms: _494  and  _495
REMARK  198  A    between atoms: _494  and  _497
REMARK  199  A    between atoms: _497  and  _498
REMARK  200  A    between atoms: _498  and  _499
REMARK  201  A    between atoms: _499  and  _500
REMARK  202  A    between atoms: _509  and  _511
REMARK  203  A    between atoms: _511  and  _512
REMARK  204  A    between atoms: _511  and  _514
REMARK  205  A    between atoms: _514  and  _515
REMARK  206  A    between atoms: _518  and  _520
REMARK  207  A    between atoms: _520  and  _521
REMARK  208  A    between atoms: _520  and  _523
REMARK  209  A    between atoms: _526  and  _528
REMARK  210  A    between atoms: _528  and  _529
REMARK  211  A    between atoms: _531  and  _533
REMARK  212  A    between atoms: _533  and  _534
REMARK  213  A    between atoms: _537  and  _539
REMARK  214  A    between atoms: _539  and  _540
REMARK  215  A    between atoms: _539  and  _542
REMARK                            x       y       z     vdW  Elec       q    Type
REMARK                         _______ _______ _______ _____ _____    ______ ____
ROOT
ATOM      1  O   HOH     1      31.197   7.592  24.430  0.00  0.00    +0.000 OA
ENDROOT
TORSDOF 0
REMARK  Name = ../refined-set-2016/4h3j/4h3j_pocket.pdb
REMARK  215 active torsions:
REMARK  status: ('A' for Active; 'I' for Inactive)
REMARK    1  A    between atoms: _1  and  _3
REMARK    2  A    between atoms: _3  and  _4
REMARK    3  A    between atoms: _3  and  _6
REMARK    4  A    between atoms: _6  and  _7
REMARK    5  A    between atoms: _7  and  _8
REMARK    6  A    between atoms: _8  and  _9
REMARK    7  A    between atoms: _9  and  _10
REMARK    8  A    between atoms: _14  and  _16
REMARK    9  A    between atoms: _16  and  _17
REMARK   10  A    between atoms: _16  and  _19
REMARK   11  A    between atoms: _19  and  _20
REMARK   12  A    between atoms: _22  and  _24
REMARK   13  A    between atoms: _24  and  _25
REMARK   14  A    between atoms: _27  and  _29
REMARK   15  A    between atoms: _29  and  _30
REMARK   16  A    between atoms: _29  and  _32
REMARK   17  A    between atoms: _32  and  _33
REMARK   18  A    between atoms: _33  and  _34
REMARK   19  A    between atoms: _39  and  _41
REMARK   20  A    between atoms: _41  and  _42
REMARK   21  A    between atoms: _44  and  _46
REMARK   22  A    between atoms: _46  and  _47
REMARK   23  A    between atoms: _46  and  _49
REMARK   24  A    between atoms: _49  and  _50
REMARK   25  A    between atoms: _55  and  _56
REMARK   26  A    between atoms: _58  and  _60
REMARK   27  A    between atoms: _60  and  _61
REMARK   28  A    between atoms: _60  and  _63
REMARK   29  A    between atoms: _63  and  _64
REMARK   30  A    between atoms: _67  and  _69
REMARK   31  A    between atoms: _69  and  _70
REMARK   32  A    between atoms: _69  and  _72
REMARK   33  A    between atoms: _75  and  _77
REMARK   34  A    between atoms: _77  and  _78
REMARK   35  A    between atoms: _77  and  _80
REMARK   36  A    between atoms: _80  and  _81
REMARK   37  A    between atoms: _84  and  _86
REMARK   38  A    between atoms: _86  and  _87
REMARK   39  A    between atoms: _86  and  _89
REMARK   40  A    between atoms: _89  and  _90
REMARK   41  A    between atoms: _93  and  _95
REMARK   42  A    between atoms: _95  and  _96
REMARK   43  A    between atoms: _98  and  _100
REMARK   44  A    between atoms: _100  and  _101
REMARK   45  A    between atoms: _100  and  _103
REMARK   46  A    between atoms: _103  and  _104
REMARK   47  A    between atoms: _106  and  _108
REMARK   48  A    between atoms: _108  and  _109
REMARK   49  A    between atoms: _108  and  _111
REMARK   50  A    between atoms: _111  and  _112
REMARK   51  A    between atoms: _114  and  _116
REMARK   52  A    between atoms: _116  and  _117
REMARK   53  A    between atoms: _116  and  _119
REMARK   54  A    between atoms: _119  and  _120
REMARK   55  A    between atoms: _125  and  _127
REMARK   56  A    between atoms: _127  and  _128
REMARK   57  A    between atoms: _127  and  _130
REMARK   58  A    between atoms: _130  and  _131
REMARK   59  A    between atoms: _137  and  _139
REMARK   60  A    between atoms: _139  and  _140
REMARK   61  A    between atoms: _143  and  _145
REMARK   62  A    between atoms: _145  and  _146
REMARK   63  A    between atoms: _145  and  _148
REMARK   64  A    between atoms: _151  and  _153
REMARK   65  A    between atoms: _153  and  _154
REMARK   66  A    between atoms: _153  and  _156
REMARK   67  A    between atoms: _156  and  _157
REMARK   68  A    between atoms: _162  and  _163
REMARK   69  A    between atoms: _165  and  _167
REMARK   70  A    between atoms: _167  and  _168
REMARK   71  A    between atoms: _167  and  _170
REMARK   72  A    between atoms: _174  and  _175
REMARK   73  A    between atoms: _180  and  _182
REMARK   74  A    between atoms: _182  and  _183
REMARK   75  A    between atoms: _182  and  _185
REMARK   76  A    between atoms: _185  and  _186
REMARK   77  A    between atoms: _191  and  _192
REMARK   78  A    between atoms: _194  and  _196
REMARK   79  A    between atoms: _196  and  _197
REMARK   80  A    between atoms: _196  and  _199
REMARK   81  A    between atoms: _199  and  _200
REMARK   82  A    between atoms: _203  and  _205
REMARK   83  A    between atoms: _205  and  _206
REMARK   84  A    between atoms: _205  and  _208
REMARK   85  A    between atoms: _208  and  _209
REMARK   86  A    between atoms: _209  and  _210
REMARK   87  A    between atoms: _215  and  _217
REMARK   88  A    between atoms: _217  and  _218
REMARK   89  A    between atoms: _220  and  _222
REMARK   90  A    between atoms: _222  and  _223
REMARK   91  A    between atoms: _222  and  _225
REMARK   92  A    between atoms: _225  and  _226
REMARK   93  A    between atoms: _226  and  _227
REMARK   94  A    between atoms: _227  and  _228
REMARK   95  A    between atoms: _228  and  _229
REMARK   96  A    between atoms: _233  and  _235
REMARK   97  A    between atoms: _235  and  _236
REMARK   98  A    between atoms: _235  and  _238
REMARK   99  A    between atoms: _238  and  _239
REMARK  100  A    between atoms: _249  and  _251
REMARK  101  A    between atoms: _251  and  _252
REMARK  102  A    between atoms: _255  and  _257
REMARK  103  A    between atoms: _257  and  _258
REMARK  104  A    between atoms: _257  and  _260
REMARK  105  A    between atoms: _260  and  _261
REMARK  106  A    between atoms: _261  and  _262
REMARK  107  A    between atoms: _262  and  _263
REMARK  108  A    between atoms: _263  and  _264
REMARK  109  A    between atoms: _268  and  _270
REMARK  110  A    between atoms: _270  and  _271
REMARK  111  A    between atoms: _270  and  _273
REMARK  112  A    between atoms: _273  and  _274
REMARK  113  A    between atoms: _280  and  _282
REMARK  114  A    between atoms: _282  and  _283
REMARK  115  A    between atoms: _282  and  _285
REMARK  116  A    between atoms: _285  and  _286
REMARK  117  A    between atoms: _292  and  _294
REMARK  118  A    between atoms: _294  and  _295
REMARK  119  A    between atoms: _294  and  _297
REMARK  120  A    between atoms: _297  and  _298
REMARK  121  A    between atoms: _301  and  _303
REMARK  122  A    between atoms: _303  and  _304
REMARK  123  A    between atoms: _303  and  _306
REMARK  124  A    between atoms: _306  and  _307
REMARK  125  A    between atoms: _309  and  _311
REMARK  126  A    between atoms: _311  and  _312
REMARK  127  A    between atoms: _311  and  _314
REMARK  128  A    between atoms: _314  and  _315
REMARK  129  A    between atoms: _325  and  _327
REMARK  130  A    between atoms: _327  and  _328
REMARK  131  A    between atoms: _330  and  _332
REMARK  132  A    between atoms: _332  and  _333
REMARK  133  A    between atoms: _332  and  _335
REMARK  134  A    between atoms: _335  and  _336
REMARK  135  A    between atoms: _339  and  _341
REMARK  136  A    between atoms: _341  and  _342
REMARK  137  A    between atoms: _341  and  _344
REMARK  138  A    between atoms: _344  and  _345
REMARK  139  A    between atoms: _348  and  _350
REMARK  140  A    between atoms: _350  and  _351
REMARK  141  A    between atoms: _353  and  _355
REMARK  142  A    between atoms: _355  and  _356
REMARK  143  A    between atoms: _355  and  _358
REMARK  144  A    between atoms: _358  and  _359
REMARK  145  A    between atoms: _362  and  _364
REMARK  146  A    between atoms: _364  and  _365
REMARK  147  A    between atoms: _364  and  _367
REMARK  148  A    between atoms: _367  and  _368
REMARK  149  A    between atoms: _371  and  _373
REMARK  150  A    between atoms: _373  and  _374
REMARK  151  A    between atoms: _377  and  _379
REMARK  152  A    between atoms: _379  and  _380
REMARK  153  A    between atoms: _379  and  _382
REMARK  154  A    between atoms: _382  and  _383
REMARK  155  A    between atoms: _383  and  _384
REMARK  156  A    between atoms: _384  and  _385
REMARK  157  A    between atoms: _395  and  _396
REMARK  158  A    between atoms: _401  and  _403
REMARK  159  A    between atoms: _403  and  _404
REMARK  160  A    between atoms: _403  and  _406
REMARK  161  A    between atoms: _406  and  _407
REMARK  162  A    between atoms: _410  and  _412
REMARK  163  A    between atoms: _412  and  _413
REMARK  164  A    between atoms: _412  and  _415
REMARK  165  A    between atoms: _415  and  _416
REMARK  166  A    between atoms: _421  and  _422
REMARK  167  A    between atoms: _424  and  _426
REMARK  168  A    between atoms: _426  and  _427
REMARK  169  A    between atoms: _426  and  _429
REMARK  170  A    between atoms: _429  and  _430
REMARK  171  A    between atoms: _433  and  _435
REMARK  172  A    between atoms: _435  and  _436
REMARK  173  A    between atoms: _435  and  _438
REMARK  174  A    between atoms: _441  and  _443
REMARK  175  A    between atoms: _443  and  _444
REMARK  176  A    between atoms: _443  and  _446
REMARK  177  A    between atoms: _446  and  _447
REMARK  178  A    between atoms: _450  and  _452
REMARK  179  A    between atoms: _452  and  _453
REMARK  180  A    between atoms: _452  and  _455
REMARK  181  A    between atoms: _455  and  _456
REMARK  182  A    between atoms: _458  and  _460
REMARK  183  A    between atoms: _460  and  _461
REMARK  184  A    between atoms: _463  and  _465
REMARK  185  A    between atoms: _465  and  _466
REMARK  186  A    between atoms: _465  and  _468
REMARK  187  A    between atoms: _468  and  _469
REMARK  188  A    between atoms: _472  and  _474
REMARK  189  A    between atoms: _474  and  _475
REMARK  190  A    between atoms: _474  and  _477
REMARK  191  A    between atoms: _477  and  _478
REMARK  192  A    between atoms: _481  and  _483
REMARK  193  A    between atoms: _483  and  _484
REMARK  194  A    between atoms: _483  and  _486
REMARK  195  A    between atoms: _486  and  _487
REMARK  196  A    between atoms: _492  and  _494
REMARK  197  A    between atoms: _494  and  _495
REMARK  198  A    between atoms: _494  and  _497
REMARK  199  A    between atoms: _497  and  _498
REMARK  200  A    between atoms: _498  and  _499
REMARK  201  A    between atoms: _499  and  _500
REMARK  202  A    between atoms: _509  and  _511
REMARK  203  A    between atoms: _511  and  _512
REMARK  204  A    between atoms: _511  and  _514
REMARK  205  A    between atoms: _514  and  _515
REMARK  206  A    between atoms: _518  and  _520
REMARK  207  A    between atoms: _520  and  _521
REMARK  208  A    between atoms: _520  and  _523
REMARK  209  A    between atoms: _526  and  _528
REMARK  210  A    between atoms: _528  and  _529
REMARK  211  A    between atoms: _531  and  _533
REMARK  212  A    between atoms: _533  and  _534
REMARK  213  A    between atoms: _537  and  _539
REMARK  214  A    between atoms: _539  and  _540
REMARK  215  A    between atoms: _539  and  _542
REMARK                            x       y       z     vdW  Elec       q    Type
REMARK                         _______ _______ _______ _____ _____    ______ ____
ROOT
ATOM      1  O   HOH     1      25.472  13.657  17.082  0.00  0.00    +0.000 OA
ENDROOT
TORSDOF 0
REMARK  Name = ../refined-set-2016/4h3j/4h3j_pocket.pdb
REMARK  215 active torsions:
REMARK  status: ('A' for Active; 'I' for Inactive)
REMARK    1  A    between atoms: _1  and  _3
REMARK    2  A    between atoms: _3  and  _4
REMARK    3  A    between atoms: _3  and  _6
REMARK    4  A    between atoms: _6  and  _7
REMARK    5  A    between atoms: _7  and  _8
REMARK    6  A    between atoms: _8  and  _9
REMARK    7  A    between atoms: _9  and  _10
REMARK    8  A    between atoms: _14  and  _16
REMARK    9  A    between atoms: _16  and  _17
REMARK   10  A    between atoms: _16  and  _19
REMARK   11  A    between atoms: _19  and  _20
REMARK   12  A    between atoms: _22  and  _24
REMARK   13  A    between atoms: _24  and  _25
REMARK   14  A    between atoms: _27  and  _29
REMARK   15  A    between atoms: _29  and  _30
REMARK   16  A    between atoms: _29  and  _32
REMARK   17  A    between atoms: _32  and  _33
REMARK   18  A    between atoms: _33  and  _34
REMARK   19  A    between atoms: _39  and  _41
REMARK   20  A    between atoms: _41  and  _42
REMARK   21  A    between atoms: _44  and  _46
REMARK   22  A    between atoms: _46  and  _47
REMARK   23  A    between atoms: _46  and  _49
REMARK   24  A    between atoms: _49  and  _50
REMARK   25  A    between atoms: _55  and  _56
REMARK   26  A    between atoms: _58  and  _60
REMARK   27  A    between atoms: _60  and  _61
REMARK   28  A    between atoms: _60  and  _63
REMARK   29  A    between atoms: _63  and  _64
REMARK   30  A    between atoms: _67  and  _69
REMARK   31  A    between atoms: _69  and  _70
REMARK   32  A    between atoms: _69  and  _72
REMARK   33  A    between atoms: _75  and  _77
REMARK   34  A    between atoms: _77  and  _78
REMARK   35  A    between atoms: _77  and  _80
REMARK   36  A    between atoms: _80  and  _81
REMARK   37  A    between atoms: _84  and  _86
REMARK   38  A    between atoms: _86  and  _87
REMARK   39  A    between atoms: _86  and  _89
REMARK   40  A    between atoms: _89  and  _90
REMARK   41  A    between atoms: _93  and  _95
REMARK   42  A    between atoms: _95  and  _96
REMARK   43  A    between atoms: _98  and  _100
REMARK   44  A    between atoms: _100  and  _101
REMARK   45  A    between atoms: _100  and  _103
REMARK   46  A    between atoms: _103  and  _104
REMARK   47  A    between atoms: _106  and  _108
REMARK   48  A    between atoms: _108  and  _109
REMARK   49  A    between atoms: _108  and  _111
REMARK   50  A    between atoms: _111  and  _112
REMARK   51  A    between atoms: _114  and  _116
REMARK   52  A    between atoms: _116  and  _117
REMARK   53  A    between atoms: _116  and  _119
REMARK   54  A    between atoms: _119  and  _120
REMARK   55  A    between atoms: _125  and  _127
REMARK   56  A    between atoms: _127  and  _128
REMARK   57  A    between atoms: _127  and  _130
REMARK   58  A    between atoms: _130  and  _131
REMARK   59  A    between atoms: _137  and  _139
REMARK   60  A    between atoms: _139  and  _140
REMARK   61  A    between atoms: _143  and  _145
REMARK   62  A    between atoms: _145  and  _146
REMARK   63  A    between atoms: _145  and  _148
REMARK   64  A    between atoms: _151  and  _153
REMARK   65  A    between atoms: _153  and  _154
REMARK   66  A    between atoms: _153  and  _156
REMARK   67  A    between atoms: _156  and  _157
REMARK   68  A    between atoms: _162  and  _163
REMARK   69  A    between atoms: _165  and  _167
REMARK   70  A    between atoms: _167  and  _168
REMARK   71  A    between atoms: _167  and  _170
REMARK   72  A    between atoms: _174  and  _175
REMARK   73  A    between atoms: _180  and  _182
REMARK   74  A    between atoms: _182  and  _183
REMARK   75  A    between atoms: _182  and  _185
REMARK   76  A    between atoms: _185  and  _186
REMARK   77  A    between atoms: _191  and  _192
REMARK   78  A    between atoms: _194  and  _196
REMARK   79  A    between atoms: _196  and  _197
REMARK   80  A    between atoms: _196  and  _199
REMARK   81  A    between atoms: _199  and  _200
REMARK   82  A    between atoms: _203  and  _205
REMARK   83  A    between atoms: _205  and  _206
REMARK   84  A    between atoms: _205  and  _208
REMARK   85  A    between atoms: _208  and  _209
REMARK   86  A    between atoms: _209  and  _210
REMARK   87  A    between atoms: _215  and  _217
REMARK   88  A    between atoms: _217  and  _218
REMARK   89  A    between atoms: _220  and  _222
REMARK   90  A    between atoms: _222  and  _223
REMARK   91  A    between atoms: _222  and  _225
REMARK   92  A    between atoms: _225  and  _226
REMARK   93  A    between atoms: _226  and  _227
REMARK   94  A    between atoms: _227  and  _228
REMARK   95  A    between atoms: _228  and  _229
REMARK   96  A    between atoms: _233  and  _235
REMARK   97  A    between atoms: _235  and  _236
REMARK   98  A    between atoms: _235  and  _238
REMARK   99  A    between atoms: _238  and  _239
REMARK  100  A    between atoms: _249  and  _251
REMARK  101  A    between atoms: _251  and  _252
REMARK  102  A    between atoms: _255  and  _257
REMARK  103  A    between atoms: _257  and  _258
REMARK  104  A    between atoms: _257  and  _260
REMARK  105  A    between atoms: _260  and  _261
REMARK  106  A    between atoms: _261  and  _262
REMARK  107  A    between atoms: _262  and  _263
REMARK  108  A    between atoms: _263  and  _264
REMARK  109  A    between atoms: _268  and  _270
REMARK  110  A    between atoms: _270  and  _271
REMARK  111  A    between atoms: _270  and  _273
REMARK  112  A    between atoms: _273  and  _274
REMARK  113  A    between atoms: _280  and  _282
REMARK  114  A    between atoms: _282  and  _283
REMARK  115  A    between atoms: _282  and  _285
REMARK  116  A    between atoms: _285  and  _286
REMARK  117  A    between atoms: _292  and  _294
REMARK  118  A    between atoms: _294  and  _295
REMARK  119  A    between atoms: _294  and  _297
REMARK  120  A    between atoms: _297  and  _298
REMARK  121  A    between atoms: _301  and  _303
REMARK  122  A    between atoms: _303  and  _304
REMARK  123  A    between atoms: _303  and  _306
REMARK  124  A    between atoms: _306  and  _307
REMARK  125  A    between atoms: _309  and  _311
REMARK  126  A    between atoms: _311  and  _312
REMARK  127  A    between atoms: _311  and  _314
REMARK  128  A    between atoms: _314  and  _315
REMARK  129  A    between atoms: _325  and  _327
REMARK  130  A    between atoms: _327  and  _328
REMARK  131  A    between atoms: _330  and  _332
REMARK  132  A    between atoms: _332  and  _333
REMARK  133  A    between atoms: _332  and  _335
REMARK  134  A    between atoms: _335  and  _336
REMARK  135  A    between atoms: _339  and  _341
REMARK  136  A    between atoms: _341  and  _342
REMARK  137  A    between atoms: _341  and  _344
REMARK  138  A    between atoms: _344  and  _345
REMARK  139  A    between atoms: _348  and  _350
REMARK  140  A    between atoms: _350  and  _351
REMARK  141  A    between atoms: _353  and  _355
REMARK  142  A    between atoms: _355  and  _356
REMARK  143  A    between atoms: _355  and  _358
REMARK  144  A    between atoms: _358  and  _359
REMARK  145  A    between atoms: _362  and  _364
REMARK  146  A    between atoms: _364  and  _365
REMARK  147  A    between atoms: _364  and  _367
REMARK  148  A    between atoms: _367  and  _368
REMARK  149  A    between atoms: _371  and  _373
REMARK  150  A    between atoms: _373  and  _374
REMARK  151  A    between atoms: _377  and  _379
REMARK  152  A    between atoms: _379  and  _380
REMARK  153  A    between atoms: _379  and  _382
REMARK  154  A    between atoms: _382  and  _383
REMARK  155  A    between atoms: _383  and  _384
REMARK  156  A    between atoms: _384  and  _385
REMARK  157  A    between atoms: _395  and  _396
REMARK  158  A    between atoms: _401  and  _403
REMARK  159  A    between atoms: _403  and  _404
REMARK  160  A    between atoms: _403  and  _406
REMARK  161  A    between atoms: _406  and  _407
REMARK  162  A    between atoms: _410  and  _412
REMARK  163  A    between atoms: _412  and  _413
REMARK  164  A    between atoms: _412  and  _415
REMARK  165  A    between atoms: _415  and  _416
REMARK  166  A    between atoms: _421  and  _422
REMARK  167  A    between atoms: _424  and  _426
REMARK  168  A    between atoms: _426  and  _427
REMARK  169  A    between atoms: _426  and  _429
REMARK  170  A    between atoms: _429  and  _430
REMARK  171  A    between atoms: _433  and  _435
REMARK  172  A    between atoms: _435  and  _436
REMARK  173  A    between atoms: _435  and  _438
REMARK  174  A    between atoms: _441  and  _443
REMARK  175  A    between atoms: _443  and  _444
REMARK  176  A    between atoms: _443  and  _446
REMARK  177  A    between atoms: _446  and  _447
REMARK  178  A    between atoms: _450  and  _452
REMARK  179  A    between atoms: _452  and  _453
REMARK  180  A    between atoms: _452  and  _455
REMARK  181  A    between atoms: _455  and  _456
REMARK  182  A    between atoms: _458  and  _460
REMARK  183  A    between atoms: _460  and  _461
REMARK  184  A    between atoms: _463  and  _465
REMARK  185  A    between atoms: _465  and  _466
REMARK  186  A    between atoms: _465  and  _468
REMARK  187  A    between atoms: _468  and  _469
REMARK  188  A    between atoms: _472  and  _474
REMARK  189  A    between atoms: _474  and  _475
REMARK  190  A    between atoms: _474  and  _477
REMARK  191  A    between atoms: _477  and  _478
REMARK  192  A    between atoms: _481  and  _483
REMARK  193  A    between atoms: _483  and  _484
REMARK  194  A    between atoms: _483  and  _486
REMARK  195  A    between atoms: _486  and  _487
REMARK  196  A    between atoms: _492  and  _494
REMARK  197  A    between atoms: _494  and  _495
REMARK  198  A    between atoms: _494  and  _497
REMARK  199  A    between atoms: _497  and  _498
REMARK  200  A    between atoms: _498  and  _499
REMARK  201  A    between atoms: _499  and  _500
REMARK  202  A    between atoms: _509  and  _511
REMARK  203  A    between atoms: _511  and  _512
REMARK  204  A    between atoms: _511  and  _514
REMARK  205  A    between atoms: _514  and  _515
REMARK  206  A    between atoms: _518  and  _520
REMARK  207  A    between atoms: _520  and  _521
REMARK  208  A    between atoms: _520  and  _523
REMARK  209  A    between atoms: _526  and  _528
REMARK  210  A    between atoms: _528  and  _529
REMARK  211  A    between atoms: _531  and  _533
REMARK  212  A    between atoms: _533  and  _534
REMARK  213  A    between atoms: _537  and  _539
REMARK  214  A    between atoms: _539  and  _540
REMARK  215  A    between atoms: _539  and  _542
REMARK                            x       y       z     vdW  Elec       q    Type
REMARK                         _______ _______ _______ _____ _____    ______ ____
ROOT
ATOM      1  O   HOH     1      28.471  13.794  24.765  0.00  0.00    +0.000 OA
ENDROOT
TORSDOF 0
REMARK  Name = ../refined-set-2016/4h3j/4h3j_pocket.pdb
REMARK  215 active torsions:
REMARK  status: ('A' for Active; 'I' for Inactive)
REMARK    1  A    between atoms: _1  and  _3
REMARK    2  A    between atoms: _3  and  _4
REMARK    3  A    between atoms: _3  and  _6
REMARK    4  A    between atoms: _6  and  _7
REMARK    5  A    between atoms: _7  and  _8
REMARK    6  A    between atoms: _8  and  _9
REMARK    7  A    between atoms: _9  and  _10
REMARK    8  A    between atoms: _14  and  _16
REMARK    9  A    between atoms: _16  and  _17
REMARK   10  A    between atoms: _16  and  _19
REMARK   11  A    between atoms: _19  and  _20
REMARK   12  A    between atoms: _22  and  _24
REMARK   13  A    between atoms: _24  and  _25
REMARK   14  A    between atoms: _27  and  _29
REMARK   15  A    between atoms: _29  and  _30
REMARK   16  A    between atoms: _29  and  _32
REMARK   17  A    between atoms: _32  and  _33
REMARK   18  A    between atoms: _33  and  _34
REMARK   19  A    between atoms: _39  and  _41
REMARK   20  A    between atoms: _41  and  _42
REMARK   21  A    between atoms: _44  and  _46
REMARK   22  A    between atoms: _46  and  _47
REMARK   23  A    between atoms: _46  and  _49
REMARK   24  A    between atoms: _49  and  _50
REMARK   25  A    between atoms: _55  and  _56
REMARK   26  A    between atoms: _58  and  _60
REMARK   27  A    between atoms: _60  and  _61
REMARK   28  A    between atoms: _60  and  _63
REMARK   29  A    between atoms: _63  and  _64
REMARK   30  A    between atoms: _67  and  _69
REMARK   31  A    between atoms: _69  and  _70
REMARK   32  A    between atoms: _69  and  _72
REMARK   33  A    between atoms: _75  and  _77
REMARK   34  A    between atoms: _77  and  _78
REMARK   35  A    between atoms: _77  and  _80
REMARK   36  A    between atoms: _80  and  _81
REMARK   37  A    between atoms: _84  and  _86
REMARK   38  A    between atoms: _86  and  _87
REMARK   39  A    between atoms: _86  and  _89
REMARK   40  A    between atoms: _89  and  _90
REMARK   41  A    between atoms: _93  and  _95
REMARK   42  A    between atoms: _95  and  _96
REMARK   43  A    between atoms: _98  and  _100
REMARK   44  A    between atoms: _100  and  _101
REMARK   45  A    between atoms: _100  and  _103
REMARK   46  A    between atoms: _103  and  _104
REMARK   47  A    between atoms: _106  and  _108
REMARK   48  A    between atoms: _108  and  _109
REMARK   49  A    between atoms: _108  and  _111
REMARK   50  A    between atoms: _111  and  _112
REMARK   51  A    between atoms: _114  and  _116
REMARK   52  A    between atoms: _116  and  _117
REMARK   53  A    between atoms: _116  and  _119
REMARK   54  A    between atoms: _119  and  _120
REMARK   55  A    between atoms: _125  and  _127
REMARK   56  A    between atoms: _127  and  _128
REMARK   57  A    between atoms: _127  and  _130
REMARK   58  A    between atoms: _130  and  _131
REMARK   59  A    between atoms: _137  and  _139
REMARK   60  A    between atoms: _139  and  _140
REMARK   61  A    between atoms: _143  and  _145
REMARK   62  A    between atoms: _145  and  _146
REMARK   63  A    between atoms: _145  and  _148
REMARK   64  A    between atoms: _151  and  _153
REMARK   65  A    between atoms: _153  and  _154
REMARK   66  A    between atoms: _153  and  _156
REMARK   67  A    between atoms: _156  and  _157
REMARK   68  A    between atoms: _162  and  _163
REMARK   69  A    between atoms: _165  and  _167
REMARK   70  A    between atoms: _167  and  _168
REMARK   71  A    between atoms: _167  and  _170
REMARK   72  A    between atoms: _174  and  _175
REMARK   73  A    between atoms: _180  and  _182
REMARK   74  A    between atoms: _182  and  _183
REMARK   75  A    between atoms: _182  and  _185
REMARK   76  A    between atoms: _185  and  _186
REMARK   77  A    between atoms: _191  and  _192
REMARK   78  A    between atoms: _194  and  _196
REMARK   79  A    between atoms: _196  and  _197
REMARK   80  A    between atoms: _196  and  _199
REMARK   81  A    between atoms: _199  and  _200
REMARK   82  A    between atoms: _203  and  _205
REMARK   83  A    between atoms: _205  and  _206
REMARK   84  A    between atoms: _205  and  _208
REMARK   85  A    between atoms: _208  and  _209
REMARK   86  A    between atoms: _209  and  _210
REMARK   87  A    between atoms: _215  and  _217
REMARK   88  A    between atoms: _217  and  _218
REMARK   89  A    between atoms: _220  and  _222
REMARK   90  A    between atoms: _222  and  _223
REMARK   91  A    between atoms: _222  and  _225
REMARK   92  A    between atoms: _225  and  _226
REMARK   93  A    between atoms: _226  and  _227
REMARK   94  A    between atoms: _227  and  _228
REMARK   95  A    between atoms: _228  and  _229
REMARK   96  A    between atoms: _233  and  _235
REMARK   97  A    between atoms: _235  and  _236
REMARK   98  A    between atoms: _235  and  _238
REMARK   99  A    between atoms: _238  and  _239
REMARK  100  A    between atoms: _249  and  _251
REMARK  101  A    between atoms: _251  and  _252
REMARK  102  A    between atoms: _255  and  _257
REMARK  103  A    between atoms: _257  and  _258
REMARK  104  A    between atoms: _257  and  _260
REMARK  105  A    between atoms: _260  and  _261
REMARK  106  A    between atoms: _261  and  _262
REMARK  107  A    between atoms: _262  and  _263
REMARK  108  A    between atoms: _263  and  _264
REMARK  109  A    between atoms: _268  and  _270
REMARK  110  A    between atoms: _270  and  _271
REMARK  111  A    between atoms: _270  and  _273
REMARK  112  A    between atoms: _273  and  _274
REMARK  113  A    between atoms: _280  and  _282
REMARK  114  A    between atoms: _282  and  _283
REMARK  115  A    between atoms: _282  and  _285
REMARK  116  A    between atoms: _285  and  _286
REMARK  117  A    between atoms: _292  and  _294
REMARK  118  A    between atoms: _294  and  _295
REMARK  119  A    between atoms: _294  and  _297
REMARK  120  A    between atoms: _297  and  _298
REMARK  121  A    between atoms: _301  and  _303
REMARK  122  A    between atoms: _303  and  _304
REMARK  123  A    between atoms: _303  and  _306
REMARK  124  A    between atoms: _306  and  _307
REMARK  125  A    between atoms: _309  and  _311
REMARK  126  A    between atoms: _311  and  _312
REMARK  127  A    between atoms: _311  and  _314
REMARK  128  A    between atoms: _314  and  _315
REMARK  129  A    between atoms: _325  and  _327
REMARK  130  A    between atoms: _327  and  _328
REMARK  131  A    between atoms: _330  and  _332
REMARK  132  A    between atoms: _332  and  _333
REMARK  133  A    between atoms: _332  and  _335
REMARK  134  A    between atoms: _335  and  _336
REMARK  135  A    between atoms: _339  and  _341
REMARK  136  A    between atoms: _341  and  _342
REMARK  137  A    between atoms: _341  and  _344
REMARK  138  A    between atoms: _344  and  _345
REMARK  139  A    between atoms: _348  and  _350
REMARK  140  A    between atoms: _350  and  _351
REMARK  141  A    between atoms: _353  and  _355
REMARK  142  A    between atoms: _355  and  _356
REMARK  143  A    between atoms: _355  and  _358
REMARK  144  A    between atoms: _358  and  _359
REMARK  145  A    between atoms: _362  and  _364
REMARK  146  A    between atoms: _364  and  _365
REMARK  147  A    between atoms: _364  and  _367
REMARK  148  A    between atoms: _367  and  _368
REMARK  149  A    between atoms: _371  and  _373
REMARK  150  A    between atoms: _373  and  _374
REMARK  151  A    between atoms: _377  and  _379
REMARK  152  A    between atoms: _379  and  _380
REMARK  153  A    between atoms: _379  and  _382
REMARK  154  A    between atoms: _382  and  _383
REMARK  155  A    between atoms: _383  and  _384
REMARK  156  A    between atoms: _384  and  _385
REMARK  157  A    between atoms: _395  and  _396
REMARK  158  A    between atoms: _401  and  _403
REMARK  159  A    between atoms: _403  and  _404
REMARK  160  A    between atoms: _403  and  _406
REMARK  161  A    between atoms: _406  and  _407
REMARK  162  A    between atoms: _410  and  _412
REMARK  163  A    between atoms: _412  and  _413
REMARK  164  A    between atoms: _412  and  _415
REMARK  165  A    between atoms: _415  and  _416
REMARK  166  A    between atoms: _421  and  _422
REMARK  167  A    between atoms: _424  and  _426
REMARK  168  A    between atoms: _426  and  _427
REMARK  169  A    between atoms: _426  and  _429
REMARK  170  A    between atoms: _429  and  _430
REMARK  171  A    between atoms: _433  and  _435
REMARK  172  A    between atoms: _435  and  _436
REMARK  173  A    between atoms: _435  and  _438
REMARK  174  A    between atoms: _441  and  _443
REMARK  175  A    between atoms: _443  and  _444
REMARK  176  A    between atoms: _443  and  _446
REMARK  177  A    between atoms: _446  and  _447
REMARK  178  A    between atoms: _450  and  _452
REMARK  179  A    between atoms: _452  and  _453
REMARK  180  A    between atoms: _452  and  _455
REMARK  181  A    between atoms: _455  and  _456
REMARK  182  A    between atoms: _458  and  _460
REMARK  183  A    between atoms: _460  and  _461
REMARK  184  A    between atoms: _463  and  _465
REMARK  185  A    between atoms: _465  and  _466
REMARK  186  A    between atoms: _465  and  _468
REMARK  187  A    between atoms: _468  and  _469
REMARK  188  A    between atoms: _472  and  _474
REMARK  189  A    between atoms: _474  and  _475
REMARK  190  A    between atoms: _474  and  _477
REMARK  191  A    between atoms: _477  and  _478
REMARK  192  A    between atoms: _481  and  _483
REMARK  193  A    between atoms: _483  and  _484
REMARK  194  A    between atoms: _483  and  _486
REMARK  195  A    between atoms: _486  and  _487
REMARK  196  A    between atoms: _492  and  _494
REMARK  197  A    between atoms: _494  and  _495
REMARK  198  A    between atoms: _494  and  _497
REMARK  199  A    between atoms: _497  and  _498
REMARK  200  A    between atoms: _498  and  _499
REMARK  201  A    between atoms: _499  and  _500
REMARK  202  A    between atoms: _509  and  _511
REMARK  203  A    between atoms: _511  and  _512
REMARK  204  A    between atoms: _511  and  _514
REMARK  205  A    between atoms: _514  and  _515
REMARK  206  A    between atoms: _518  and  _520
REMARK  207  A    between atoms: _520  and  _521
REMARK  208  A    between atoms: _520  and  _523
REMARK  209  A    between atoms: _526  and  _528
REMARK  210  A    between atoms: _528  and  _529
REMARK  211  A    between atoms: _531  and  _533
REMARK  212  A    between atoms: _533  and  _534
REMARK  213  A    between atoms: _537  and  _539
REMARK  214  A    between atoms: _539  and  _540
REMARK  215  A    between atoms: _539  and  _542
REMARK                            x       y       z     vdW  Elec       q    Type
REMARK                         _______ _______ _______ _____ _____    ______ ____
ROOT
ATOM      1  O   HOH     1      20.158  13.443  31.013  0.00  0.00    +0.000 OA
ENDROOT
TORSDOF 0
REMARK  Name = ../refined-set-2016/4h3j/4h3j_pocket.pdb
REMARK  215 active torsions:
REMARK  status: ('A' for Active; 'I' for Inactive)
REMARK    1  A    between atoms: _1  and  _3
REMARK    2  A    between atoms: _3  and  _4
REMARK    3  A    between atoms: _3  and  _6
REMARK    4  A    between atoms: _6  and  _7
REMARK    5  A    between atoms: _7  and  _8
REMARK    6  A    between atoms: _8  and  _9
REMARK    7  A    between atoms: _9  and  _10
REMARK    8  A    between atoms: _14  and  _16
REMARK    9  A    between atoms: _16  and  _17
REMARK   10  A    between atoms: _16  and  _19
REMARK   11  A    between atoms: _19  and  _20
REMARK   12  A    between atoms: _22  and  _24
REMARK   13  A    between atoms: _24  and  _25
REMARK   14  A    between atoms: _27  and  _29
REMARK   15  A    between atoms: _29  and  _30
REMARK   16  A    between atoms: _29  and  _32
REMARK   17  A    between atoms: _32  and  _33
REMARK   18  A    between atoms: _33  and  _34
REMARK   19  A    between atoms: _39  and  _41
REMARK   20  A    between atoms: _41  and  _42
REMARK   21  A    between atoms: _44  and  _46
REMARK   22  A    between atoms: _46  and  _47
REMARK   23  A    between atoms: _46  and  _49
REMARK   24  A    between atoms: _49  and  _50
REMARK   25  A    between atoms: _55  and  _56
REMARK   26  A    between atoms: _58  and  _60
REMARK   27  A    between atoms: _60  and  _61
REMARK   28  A    between atoms: _60  and  _63
REMARK   29  A    between atoms: _63  and  _64
REMARK   30  A    between atoms: _67  and  _69
REMARK   31  A    between atoms: _69  and  _70
REMARK   32  A    between atoms: _69  and  _72
REMARK   33  A    between atoms: _75  and  _77
REMARK   34  A    between atoms: _77  and  _78
REMARK   35  A    between atoms: _77  and  _80
REMARK   36  A    between atoms: _80  and  _81
REMARK   37  A    between atoms: _84  and  _86
REMARK   38  A    between atoms: _86  and  _87
REMARK   39  A    between atoms: _86  and  _89
REMARK   40  A    between atoms: _89  and  _90
REMARK   41  A    between atoms: _93  and  _95
REMARK   42  A    between atoms: _95  and  _96
REMARK   43  A    between atoms: _98  and  _100
REMARK   44  A    between atoms: _100  and  _101
REMARK   45  A    between atoms: _100  and  _103
REMARK   46  A    between atoms: _103  and  _104
REMARK   47  A    between atoms: _106  and  _108
REMARK   48  A    between atoms: _108  and  _109
REMARK   49  A    between atoms: _108  and  _111
REMARK   50  A    between atoms: _111  and  _112
REMARK   51  A    between atoms: _114  and  _116
REMARK   52  A    between atoms: _116  and  _117
REMARK   53  A    between atoms: _116  and  _119
REMARK   54  A    between atoms: _119  and  _120
REMARK   55  A    between atoms: _125  and  _127
REMARK   56  A    between atoms: _127  and  _128
REMARK   57  A    between atoms: _127  and  _130
REMARK   58  A    between atoms: _130  and  _131
REMARK   59  A    between atoms: _137  and  _139
REMARK   60  A    between atoms: _139  and  _140
REMARK   61  A    between atoms: _143  and  _145
REMARK   62  A    between atoms: _145  and  _146
REMARK   63  A    between atoms: _145  and  _148
REMARK   64  A    between atoms: _151  and  _153
REMARK   65  A    between atoms: _153  and  _154
REMARK   66  A    between atoms: _153  and  _156
REMARK   67  A    between atoms: _156  and  _157
REMARK   68  A    between atoms: _162  and  _163
REMARK   69  A    between atoms: _165  and  _167
REMARK   70  A    between atoms: _167  and  _168
REMARK   71  A    between atoms: _167  and  _170
REMARK   72  A    between atoms: _174  and  _175
REMARK   73  A    between atoms: _180  and  _182
REMARK   74  A    between atoms: _182  and  _183
REMARK   75  A    between atoms: _182  and  _185
REMARK   76  A    between atoms: _185  and  _186
REMARK   77  A    between atoms: _191  and  _192
REMARK   78  A    between atoms: _194  and  _196
REMARK   79  A    between atoms: _196  and  _197
REMARK   80  A    between atoms: _196  and  _199
REMARK   81  A    between atoms: _199  and  _200
REMARK   82  A    between atoms: _203  and  _205
REMARK   83  A    between atoms: _205  and  _206
REMARK   84  A    between atoms: _205  and  _208
REMARK   85  A    between atoms: _208  and  _209
REMARK   86  A    between atoms: _209  and  _210
REMARK   87  A    between atoms: _215  and  _217
REMARK   88  A    between atoms: _217  and  _218
REMARK   89  A    between atoms: _220  and  _222
REMARK   90  A    between atoms: _222  and  _223
REMARK   91  A    between atoms: _222  and  _225
REMARK   92  A    between atoms: _225  and  _226
REMARK   93  A    between atoms: _226  and  _227
REMARK   94  A    between atoms: _227  and  _228
REMARK   95  A    between atoms: _228  and  _229
REMARK   96  A    between atoms: _233  and  _235
REMARK   97  A    between atoms: _235  and  _236
REMARK   98  A    between atoms: _235  and  _238
REMARK   99  A    between atoms: _238  and  _239
REMARK  100  A    between atoms: _249  and  _251
REMARK  101  A    between atoms: _251  and  _252
REMARK  102  A    between atoms: _255  and  _257
REMARK  103  A    between atoms: _257  and  _258
REMARK  104  A    between atoms: _257  and  _260
REMARK  105  A    between atoms: _260  and  _261
REMARK  106  A    between atoms: _261  and  _262
REMARK  107  A    between atoms: _262  and  _263
REMARK  108  A    between atoms: _263  and  _264
REMARK  109  A    between atoms: _268  and  _270
REMARK  110  A    between atoms: _270  and  _271
REMARK  111  A    between atoms: _270  and  _273
REMARK  112  A    between atoms: _273  and  _274
REMARK  113  A    between atoms: _280  and  _282
REMARK  114  A    between atoms: _282  and  _283
REMARK  115  A    between atoms: _282  and  _285
REMARK  116  A    between atoms: _285  and  _286
REMARK  117  A    between atoms: _292  and  _294
REMARK  118  A    between atoms: _294  and  _295
REMARK  119  A    between atoms: _294  and  _297
REMARK  120  A    between atoms: _297  and  _298
REMARK  121  A    between atoms: _301  and  _303
REMARK  122  A    between atoms: _303  and  _304
REMARK  123  A    between atoms: _303  and  _306
REMARK  124  A    between atoms: _306  and  _307
REMARK  125  A    between atoms: _309  and  _311
REMARK  126  A    between atoms: _311  and  _312
REMARK  127  A    between atoms: _311  and  _314
REMARK  128  A    between atoms: _314  and  _315
REMARK  129  A    between atoms: _325  and  _327
REMARK  130  A    between atoms: _327  and  _328
REMARK  131  A    between atoms: _330  and  _332
REMARK  132  A    between atoms: _332  and  _333
REMARK  133  A    between atoms: _332  and  _335
REMARK  134  A    between atoms: _335  and  _336
REMARK  135  A    between atoms: _339  and  _341
REMARK  136  A    between atoms: _341  and  _342
REMARK  137  A    between atoms: _341  and  _344
REMARK  138  A    between atoms: _344  and  _345
REMARK  139  A    between atoms: _348  and  _350
REMARK  140  A    between atoms: _350  and  _351
REMARK  141  A    between atoms: _353  and  _355
REMARK  142  A    between atoms: _355  and  _356
REMARK  143  A    between atoms: _355  and  _358
REMARK  144  A    between atoms: _358  and  _359
REMARK  145  A    between atoms: _362  and  _364
REMARK  146  A    between atoms: _364  and  _365
REMARK  147  A    between atoms: _364  and  _367
REMARK  148  A    between atoms: _367  and  _368
REMARK  149  A    between atoms: _371  and  _373
REMARK  150  A    between atoms: _373  and  _374
REMARK  151  A    between atoms: _377  and  _379
REMARK  152  A    between atoms: _379  and  _380
REMARK  153  A    between atoms: _379  and  _382
REMARK  154  A    between atoms: _382  and  _383
REMARK  155  A    between atoms: _383  and  _384
REMARK  156  A    between atoms: _384  and  _385
REMARK  157  A    between atoms: _395  and  _396
REMARK  158  A    between atoms: _401  and  _403
REMARK  159  A    between atoms: _403  and  _404
REMARK  160  A    between atoms: _403  and  _406
REMARK  161  A    between atoms: _406  and  _407
REMARK  162  A    between atoms: _410  and  _412
REMARK  163  A    between atoms: _412  and  _413
REMARK  164  A    between atoms: _412  and  _415
REMARK  165  A    between atoms: _415  and  _416
REMARK  166  A    between atoms: _421  and  _422
REMARK  167  A    between atoms: _424  and  _426
REMARK  168  A    between atoms: _426  and  _427
REMARK  169  A    between atoms: _426  and  _429
REMARK  170  A    between atoms: _429  and  _430
REMARK  171  A    between atoms: _433  and  _435
REMARK  172  A    between atoms: _435  and  _436
REMARK  173  A    between atoms: _435  and  _438
REMARK  174  A    between atoms: _441  and  _443
REMARK  175  A    between atoms: _443  and  _444
REMARK  176  A    between atoms: _443  and  _446
REMARK  177  A    between atoms: _446  and  _447
REMARK  178  A    between atoms: _450  and  _452
REMARK  179  A    between atoms: _452  and  _453
REMARK  180  A    between atoms: _452  and  _455
REMARK  181  A    between atoms: _455  and  _456
REMARK  182  A    between atoms: _458  and  _460
REMARK  183  A    between atoms: _460  and  _461
REMARK  184  A    between atoms: _463  and  _465
REMARK  185  A    between atoms: _465  and  _466
REMARK  186  A    between atoms: _465  and  _468
REMARK  187  A    between atoms: _468  and  _469
REMARK  188  A    between atoms: _472  and  _474
REMARK  189  A    between atoms: _474  and  _475
REMARK  190  A    between atoms: _474  and  _477
REMARK  191  A    between atoms: _477  and  _478
REMARK  192  A    between atoms: _481  and  _483
REMARK  193  A    between atoms: _483  and  _484
REMARK  194  A    between atoms: _483  and  _486
REMARK  195  A    between atoms: _486  and  _487
REMARK  196  A    between atoms: _492  and  _494
REMARK  197  A    between atoms: _494  and  _495
REMARK  198  A    between atoms: _494  and  _497
REMARK  199  A    between atoms: _497  and  _498
REMARK  200  A    between atoms: _498  and  _499
REMARK  201  A    between atoms: _499  and  _500
REMARK  202  A    between atoms: _509  and  _511
REMARK  203  A    between atoms: _511  and  _512
REMARK  204  A    between atoms: _511  and  _514
REMARK  205  A    between atoms: _514  and  _515
REMARK  206  A    between atoms: _518  and  _520
REMARK  207  A    between atoms: _520  and  _521
REMARK  208  A    between atoms: _520  and  _523
REMARK  209  A    between atoms: _526  and  _528
REMARK  210  A    between atoms: _528  and  _529
REMARK  211  A    between atoms: _531  and  _533
REMARK  212  A    between atoms: _533  and  _534
REMARK  213  A    between atoms: _537  and  _539
REMARK  214  A    between atoms: _539  and  _540
REMARK  215  A    between atoms: _539  and  _542
REMARK                            x       y       z     vdW  Elec       q    Type
REMARK                         _______ _______ _______ _____ _____    ______ ____
ROOT
ATOM      1  O   HOH     1      29.994  13.817  22.423  0.00  0.00    +0.000 OA
ENDROOT
TORSDOF 0
REMARK  Name = ../refined-set-2016/4h3j/4h3j_pocket.pdb
REMARK  215 active torsions:
REMARK  status: ('A' for Active; 'I' for Inactive)
REMARK    1  A    between atoms: _1  and  _3
REMARK    2  A    between atoms: _3  and  _4
REMARK    3  A    between atoms: _3  and  _6
REMARK    4  A    between atoms: _6  and  _7
REMARK    5  A    between atoms: _7  and  _8
REMARK    6  A    between atoms: _8  and  _9
REMARK    7  A    between atoms: _9  and  _10
REMARK    8  A    between atoms: _14  and  _16
REMARK    9  A    between atoms: _16  and  _17
REMARK   10  A    between atoms: _16  and  _19
REMARK   11  A    between atoms: _19  and  _20
REMARK   12  A    between atoms: _22  and  _24
REMARK   13  A    between atoms: _24  and  _25
REMARK   14  A    between atoms: _27  and  _29
REMARK   15  A    between atoms: _29  and  _30
REMARK   16  A    between atoms: _29  and  _32
REMARK   17  A    between atoms: _32  and  _33
REMARK   18  A    between atoms: _33  and  _34
REMARK   19  A    between atoms: _39  and  _41
REMARK   20  A    between atoms: _41  and  _42
REMARK   21  A    between atoms: _44  and  _46
REMARK   22  A    between atoms: _46  and  _47
REMARK   23  A    between atoms: _46  and  _49
REMARK   24  A    between atoms: _49  and  _50
REMARK   25  A    between atoms: _55  and  _56
REMARK   26  A    between atoms: _58  and  _60
REMARK   27  A    between atoms: _60  and  _61
REMARK   28  A    between atoms: _60  and  _63
REMARK   29  A    between atoms: _63  and  _64
REMARK   30  A    between atoms: _67  and  _69
REMARK   31  A    between atoms: _69  and  _70
REMARK   32  A    between atoms: _69  and  _72
REMARK   33  A    between atoms: _75  and  _77
REMARK   34  A    between atoms: _77  and  _78
REMARK   35  A    between atoms: _77  and  _80
REMARK   36  A    between atoms: _80  and  _81
REMARK   37  A    between atoms: _84  and  _86
REMARK   38  A    between atoms: _86  and  _87
REMARK   39  A    between atoms: _86  and  _89
REMARK   40  A    between atoms: _89  and  _90
REMARK   41  A    between atoms: _93  and  _95
REMARK   42  A    between atoms: _95  and  _96
REMARK   43  A    between atoms: _98  and  _100
REMARK   44  A    between atoms: _100  and  _101
REMARK   45  A    between atoms: _100  and  _103
REMARK   46  A    between atoms: _103  and  _104
REMARK   47  A    between atoms: _106  and  _108
REMARK   48  A    between atoms: _108  and  _109
REMARK   49  A    between atoms: _108  and  _111
REMARK   50  A    between atoms: _111  and  _112
REMARK   51  A    between atoms: _114  and  _116
REMARK   52  A    between atoms: _116  and  _117
REMARK   53  A    between atoms: _116  and  _119
REMARK   54  A    between atoms: _119  and  _120
REMARK   55  A    between atoms: _125  and  _127
REMARK   56  A    between atoms: _127  and  _128
REMARK   57  A    between atoms: _127  and  _130
REMARK   58  A    between atoms: _130  and  _131
REMARK   59  A    between atoms: _137  and  _139
REMARK   60  A    between atoms: _139  and  _140
REMARK   61  A    between atoms: _143  and  _145
REMARK   62  A    between atoms: _145  and  _146
REMARK   63  A    between atoms: _145  and  _148
REMARK   64  A    between atoms: _151  and  _153
REMARK   65  A    between atoms: _153  and  _154
REMARK   66  A    between atoms: _153  and  _156
REMARK   67  A    between atoms: _156  and  _157
REMARK   68  A    between atoms: _162  and  _163
REMARK   69  A    between atoms: _165  and  _167
REMARK   70  A    between atoms: _167  and  _168
REMARK   71  A    between atoms: _167  and  _170
REMARK   72  A    between atoms: _174  and  _175
REMARK   73  A    between atoms: _180  and  _182
REMARK   74  A    between atoms: _182  and  _183
REMARK   75  A    between atoms: _182  and  _185
REMARK   76  A    between atoms: _185  and  _186
REMARK   77  A    between atoms: _191  and  _192
REMARK   78  A    between atoms: _194  and  _196
REMARK   79  A    between atoms: _196  and  _197
REMARK   80  A    between atoms: _196  and  _199
REMARK   81  A    between atoms: _199  and  _200
REMARK   82  A    between atoms: _203  and  _205
REMARK   83  A    between atoms: _205  and  _206
REMARK   84  A    between atoms: _205  and  _208
REMARK   85  A    between atoms: _208  and  _209
REMARK   86  A    between atoms: _209  and  _210
REMARK   87  A    between atoms: _215  and  _217
REMARK   88  A    between atoms: _217  and  _218
REMARK   89  A    between atoms: _220  and  _222
REMARK   90  A    between atoms: _222  and  _223
REMARK   91  A    between atoms: _222  and  _225
REMARK   92  A    between atoms: _225  and  _226
REMARK   93  A    between atoms: _226  and  _227
REMARK   94  A    between atoms: _227  and  _228
REMARK   95  A    between atoms: _228  and  _229
REMARK   96  A    between atoms: _233  and  _235
REMARK   97  A    between atoms: _235  and  _236
REMARK   98  A    between atoms: _235  and  _238
REMARK   99  A    between atoms: _238  and  _239
REMARK  100  A    between atoms: _249  and  _251
REMARK  101  A    between atoms: _251  and  _252
REMARK  102  A    between atoms: _255  and  _257
REMARK  103  A    between atoms: _257  and  _258
REMARK  104  A    between atoms: _257  and  _260
REMARK  105  A    between atoms: _260  and  _261
REMARK  106  A    between atoms: _261  and  _262
REMARK  107  A    between atoms: _262  and  _263
REMARK  108  A    between atoms: _263  and  _264
REMARK  109  A    between atoms: _268  and  _270
REMARK  110  A    between atoms: _270  and  _271
REMARK  111  A    between atoms: _270  and  _273
REMARK  112  A    between atoms: _273  and  _274
REMARK  113  A    between atoms: _280  and  _282
REMARK  114  A    between atoms: _282  and  _283
REMARK  115  A    between atoms: _282  and  _285
REMARK  116  A    between atoms: _285  and  _286
REMARK  117  A    between atoms: _292  and  _294
REMARK  118  A    between atoms: _294  and  _295
REMARK  119  A    between atoms: _294  and  _297
REMARK  120  A    between atoms: _297  and  _298
REMARK  121  A    between atoms: _301  and  _303
REMARK  122  A    between atoms: _303  and  _304
REMARK  123  A    between atoms: _303  and  _306
REMARK  124  A    between atoms: _306  and  _307
REMARK  125  A    between atoms: _309  and  _311
REMARK  126  A    between atoms: _311  and  _312
REMARK  127  A    between atoms: _311  and  _314
REMARK  128  A    between atoms: _314  and  _315
REMARK  129  A    between atoms: _325  and  _327
REMARK  130  A    between atoms: _327  and  _328
REMARK  131  A    between atoms: _330  and  _332
REMARK  132  A    between atoms: _332  and  _333
REMARK  133  A    between atoms: _332  and  _335
REMARK  134  A    between atoms: _335  and  _336
REMARK  135  A    between atoms: _339  and  _341
REMARK  136  A    between atoms: _341  and  _342
REMARK  137  A    between atoms: _341  and  _344
REMARK  138  A    between atoms: _344  and  _345
REMARK  139  A    between atoms: _348  and  _350
REMARK  140  A    between atoms: _350  and  _351
REMARK  141  A    between atoms: _353  and  _355
REMARK  142  A    between atoms: _355  and  _356
REMARK  143  A    between atoms: _355  and  _358
REMARK  144  A    between atoms: _358  and  _359
REMARK  145  A    between atoms: _362  and  _364
REMARK  146  A    between atoms: _364  and  _365
REMARK  147  A    between atoms: _364  and  _367
REMARK  148  A    between atoms: _367  and  _368
REMARK  149  A    between atoms: _371  and  _373
REMARK  150  A    between atoms: _373  and  _374
REMARK  151  A    between atoms: _377  and  _379
REMARK  152  A    between atoms: _379  and  _380
REMARK  153  A    between atoms: _379  and  _382
REMARK  154  A    between atoms: _382  and  _383
REMARK  155  A    between atoms: _383  and  _384
REMARK  156  A    between atoms: _384  and  _385
REMARK  157  A    between atoms: _395  and  _396
REMARK  158  A    between atoms: _401  and  _403
REMARK  159  A    between atoms: _403  and  _404
REMARK  160  A    between atoms: _403  and  _406
REMARK  161  A    between atoms: _406  and  _407
REMARK  162  A    between atoms: _410  and  _412
REMARK  163  A    between atoms: _412  and  _413
REMARK  164  A    between atoms: _412  and  _415
REMARK  165  A    between atoms: _415  and  _416
REMARK  166  A    between atoms: _421  and  _422
REMARK  167  A    between atoms: _424  and  _426
REMARK  168  A    between atoms: _426  and  _427
REMARK  169  A    between atoms: _426  and  _429
REMARK  170  A    between atoms: _429  and  _430
REMARK  171  A    between atoms: _433  and  _435
REMARK  172  A    between atoms: _435  and  _436
REMARK  173  A    between atoms: _435  and  _438
REMARK  174  A    between atoms: _441  and  _443
REMARK  175  A    between atoms: _443  and  _444
REMARK  176  A    between atoms: _443  and  _446
REMARK  177  A    between atoms: _446  and  _447
REMARK  178  A    between atoms: _450  and  _452
REMARK  179  A    between atoms: _452  and  _453
REMARK  180  A    between atoms: _452  and  _455
REMARK  181  A    between atoms: _455  and  _456
REMARK  182  A    between atoms: _458  and  _460
REMARK  183  A    between atoms: _460  and  _461
REMARK  184  A    between atoms: _463  and  _465
REMARK  185  A    between atoms: _465  and  _466
REMARK  186  A    between atoms: _465  and  _468
REMARK  187  A    between atoms: _468  and  _469
REMARK  188  A    between atoms: _472  and  _474
REMARK  189  A    between atoms: _474  and  _475
REMARK  190  A    between atoms: _474  and  _477
REMARK  191  A    between atoms: _477  and  _478
REMARK  192  A    between atoms: _481  and  _483
REMARK  193  A    between atoms: _483  and  _484
REMARK  194  A    between atoms: _483  and  _486
REMARK  195  A    between atoms: _486  and  _487
REMARK  196  A    between atoms: _492  and  _494
REMARK  197  A    between atoms: _494  and  _495
REMARK  198  A    between atoms: _494  and  _497
REMARK  199  A    between atoms: _497  and  _498
REMARK  200  A    between atoms: _498  and  _499
REMARK  201  A    between atoms: _499  and  _500
REMARK  202  A    between atoms: _509  and  _511
REMARK  203  A    between atoms: _511  and  _512
REMARK  204  A    between atoms: _511  and  _514
REMARK  205  A    between atoms: _514  and  _515
REMARK  206  A    between atoms: _518  and  _520
REMARK  207  A    between atoms: _520  and  _521
REMARK  208  A    between atoms: _520  and  _523
REMARK  209  A    between atoms: _526  and  _528
REMARK  210  A    between atoms: _528  and  _529
REMARK  211  A    between atoms: _531  and  _533
REMARK  212  A    between atoms: _533  and  _534
REMARK  213  A    between atoms: _537  and  _539
REMARK  214  A    between atoms: _539  and  _540
REMARK  215  A    between atoms: _539  and  _542
REMARK                            x       y       z     vdW  Elec       q    Type
REMARK                         _______ _______ _______ _____ _____    ______ ____
ROOT
ATOM      1  O   HOH     1      34.211  14.270  16.961  0.00  0.00    +0.000 OA
ENDROOT
TORSDOF 0
REMARK  Name = ../refined-set-2016/4h3j/4h3j_pocket.pdb
REMARK  215 active torsions:
REMARK  status: ('A' for Active; 'I' for Inactive)
REMARK    1  A    between atoms: _1  and  _3
REMARK    2  A    between atoms: _3  and  _4
REMARK    3  A    between atoms: _3  and  _6
REMARK    4  A    between atoms: _6  and  _7
REMARK    5  A    between atoms: _7  and  _8
REMARK    6  A    between atoms: _8  and  _9
REMARK    7  A    between atoms: _9  and  _10
REMARK    8  A    between atoms: _14  and  _16
REMARK    9  A    between atoms: _16  and  _17
REMARK   10  A    between atoms: _16  and  _19
REMARK   11  A    between atoms: _19  and  _20
REMARK   12  A    between atoms: _22  and  _24
REMARK   13  A    between atoms: _24  and  _25
REMARK   14  A    between atoms: _27  and  _29
REMARK   15  A    between atoms: _29  and  _30
REMARK   16  A    between atoms: _29  and  _32
REMARK   17  A    between atoms: _32  and  _33
REMARK   18  A    between atoms: _33  and  _34
REMARK   19  A    between atoms: _39  and  _41
REMARK   20  A    between atoms: _41  and  _42
REMARK   21  A    between atoms: _44  and  _46
REMARK   22  A    between atoms: _46  and  _47
REMARK   23  A    between atoms: _46  and  _49
REMARK   24  A    between atoms: _49  and  _50
REMARK   25  A    between atoms: _55  and  _56
REMARK   26  A    between atoms: _58  and  _60
REMARK   27  A    between atoms: _60  and  _61
REMARK   28  A    between atoms: _60  and  _63
REMARK   29  A    between atoms: _63  and  _64
REMARK   30  A    between atoms: _67  and  _69
REMARK   31  A    between atoms: _69  and  _70
REMARK   32  A    between atoms: _69  and  _72
REMARK   33  A    between atoms: _75  and  _77
REMARK   34  A    between atoms: _77  and  _78
REMARK   35  A    between atoms: _77  and  _80
REMARK   36  A    between atoms: _80  and  _81
REMARK   37  A    between atoms: _84  and  _86
REMARK   38  A    between atoms: _86  and  _87
REMARK   39  A    between atoms: _86  and  _89
REMARK   40  A    between atoms: _89  and  _90
REMARK   41  A    between atoms: _93  and  _95
REMARK   42  A    between atoms: _95  and  _96
REMARK   43  A    between atoms: _98  and  _100
REMARK   44  A    between atoms: _100  and  _101
REMARK   45  A    between atoms: _100  and  _103
REMARK   46  A    between atoms: _103  and  _104
REMARK   47  A    between atoms: _106  and  _108
REMARK   48  A    between atoms: _108  and  _109
REMARK   49  A    between atoms: _108  and  _111
REMARK   50  A    between atoms: _111  and  _112
REMARK   51  A    between atoms: _114  and  _116
REMARK   52  A    between atoms: _116  and  _117
REMARK   53  A    between atoms: _116  and  _119
REMARK   54  A    between atoms: _119  and  _120
REMARK   55  A    between atoms: _125  and  _127
REMARK   56  A    between atoms: _127  and  _128
REMARK   57  A    between atoms: _127  and  _130
REMARK   58  A    between atoms: _130  and  _131
REMARK   59  A    between atoms: _137  and  _139
REMARK   60  A    between atoms: _139  and  _140
REMARK   61  A    between atoms: _143  and  _145
REMARK   62  A    between atoms: _145  and  _146
REMARK   63  A    between atoms: _145  and  _148
REMARK   64  A    between atoms: _151  and  _153
REMARK   65  A    between atoms: _153  and  _154
REMARK   66  A    between atoms: _153  and  _156
REMARK   67  A    between atoms: _156  and  _157
REMARK   68  A    between atoms: _162  and  _163
REMARK   69  A    between atoms: _165  and  _167
REMARK   70  A    between atoms: _167  and  _168
REMARK   71  A    between atoms: _167  and  _170
REMARK   72  A    between atoms: _174  and  _175
REMARK   73  A    between atoms: _180  and  _182
REMARK   74  A    between atoms: _182  and  _183
REMARK   75  A    between atoms: _182  and  _185
REMARK   76  A    between atoms: _185  and  _186
REMARK   77  A    between atoms: _191  and  _192
REMARK   78  A    between atoms: _194  and  _196
REMARK   79  A    between atoms: _196  and  _197
REMARK   80  A    between atoms: _196  and  _199
REMARK   81  A    between atoms: _199  and  _200
REMARK   82  A    between atoms: _203  and  _205
REMARK   83  A    between atoms: _205  and  _206
REMARK   84  A    between atoms: _205  and  _208
REMARK   85  A    between atoms: _208  and  _209
REMARK   86  A    between atoms: _209  and  _210
REMARK   87  A    between atoms: _215  and  _217
REMARK   88  A    between atoms: _217  and  _218
REMARK   89  A    between atoms: _220  and  _222
REMARK   90  A    between atoms: _222  and  _223
REMARK   91  A    between atoms: _222  and  _225
REMARK   92  A    between atoms: _225  and  _226
REMARK   93  A    between atoms: _226  and  _227
REMARK   94  A    between atoms: _227  and  _228
REMARK   95  A    between atoms: _228  and  _229
REMARK   96  A    between atoms: _233  and  _235
REMARK   97  A    between atoms: _235  and  _236
REMARK   98  A    between atoms: _235  and  _238
REMARK   99  A    between atoms: _238  and  _239
REMARK  100  A    between atoms: _249  and  _251
REMARK  101  A    between atoms: _251  and  _252
REMARK  102  A    between atoms: _255  and  _257
REMARK  103  A    between atoms: _257  and  _258
REMARK  104  A    between atoms: _257  and  _260
REMARK  105  A    between atoms: _260  and  _261
REMARK  106  A    between atoms: _261  and  _262
REMARK  107  A    between atoms: _262  and  _263
REMARK  108  A    between atoms: _263  and  _264
REMARK  109  A    between atoms: _268  and  _270
REMARK  110  A    between atoms: _270  and  _271
REMARK  111  A    between atoms: _270  and  _273
REMARK  112  A    between atoms: _273  and  _274
REMARK  113  A    between atoms: _280  and  _282
REMARK  114  A    between atoms: _282  and  _283
REMARK  115  A    between atoms: _282  and  _285
REMARK  116  A    between atoms: _285  and  _286
REMARK  117  A    between atoms: _292  and  _294
REMARK  118  A    between atoms: _294  and  _295
REMARK  119  A    between atoms: _294  and  _297
REMARK  120  A    between atoms: _297  and  _298
REMARK  121  A    between atoms: _301  and  _303
REMARK  122  A    between atoms: _303  and  _304
REMARK  123  A    between atoms: _303  and  _306
REMARK  124  A    between atoms: _306  and  _307
REMARK  125  A    between atoms: _309  and  _311
REMARK  126  A    between atoms: _311  and  _312
REMARK  127  A    between atoms: _311  and  _314
REMARK  128  A    between atoms: _314  and  _315
REMARK  129  A    between atoms: _325  and  _327
REMARK  130  A    between atoms: _327  and  _328
REMARK  131  A    between atoms: _330  and  _332
REMARK  132  A    between atoms: _332  and  _333
REMARK  133  A    between atoms: _332  and  _335
REMARK  134  A    between atoms: _335  and  _336
REMARK  135  A    between atoms: _339  and  _341
REMARK  136  A    between atoms: _341  and  _342
REMARK  137  A    between atoms: _341  and  _344
REMARK  138  A    between atoms: _344  and  _345
REMARK  139  A    between atoms: _348  and  _350
REMARK  140  A    between atoms: _350  and  _351
REMARK  141  A    between atoms: _353  and  _355
REMARK  142  A    between atoms: _355  and  _356
REMARK  143  A    between atoms: _355  and  _358
REMARK  144  A    between atoms: _358  and  _359
REMARK  145  A    between atoms: _362  and  _364
REMARK  146  A    between atoms: _364  and  _365
REMARK  147  A    between atoms: _364  and  _367
REMARK  148  A    between atoms: _367  and  _368
REMARK  149  A    between atoms: _371  and  _373
REMARK  150  A    between atoms: _373  and  _374
REMARK  151  A    between atoms: _377  and  _379
REMARK  152  A    between atoms: _379  and  _380
REMARK  153  A    between atoms: _379  and  _382
REMARK  154  A    between atoms: _382  and  _383
REMARK  155  A    between atoms: _383  and  _384
REMARK  156  A    between atoms: _384  and  _385
REMARK  157  A    between atoms: _395  and  _396
REMARK  158  A    between atoms: _401  and  _403
REMARK  159  A    between atoms: _403  and  _404
REMARK  160  A    between atoms: _403  and  _406
REMARK  161  A    between atoms: _406  and  _407
REMARK  162  A    between atoms: _410  and  _412
REMARK  163  A    between atoms: _412  and  _413
REMARK  164  A    between atoms: _412  and  _415
REMARK  165  A    between atoms: _415  and  _416
REMARK  166  A    between atoms: _421  and  _422
REMARK  167  A    between atoms: _424  and  _426
REMARK  168  A    between atoms: _426  and  _427
REMARK  169  A    between atoms: _426  and  _429
REMARK  170  A    between atoms: _429  and  _430
REMARK  171  A    between atoms: _433  and  _435
REMARK  172  A    between atoms: _435  and  _436
REMARK  173  A    between atoms: _435  and  _438
REMARK  174  A    between atoms: _441  and  _443
REMARK  175  A    between atoms: _443  and  _444
REMARK  176  A    between atoms: _443  and  _446
REMARK  177  A    between atoms: _446  and  _447
REMARK  178  A    between atoms: _450  and  _452
REMARK  179  A    between atoms: _452  and  _453
REMARK  180  A    between atoms: _452  and  _455
REMARK  181  A    between atoms: _455  and  _456
REMARK  182  A    between atoms: _458  and  _460
REMARK  183  A    between atoms: _460  and  _461
REMARK  184  A    between atoms: _463  and  _465
REMARK  185  A    between atoms: _465  and  _466
REMARK  186  A    between atoms: _465  and  _468
REMARK  187  A    between atoms: _468  and  _469
REMARK  188  A    between atoms: _472  and  _474
REMARK  189  A    between atoms: _474  and  _475
REMARK  190  A    between atoms: _474  and  _477
REMARK  191  A    between atoms: _477  and  _478
REMARK  192  A    between atoms: _481  and  _483
REMARK  193  A    between atoms: _483  and  _484
REMARK  194  A    between atoms: _483  and  _486
REMARK  195  A    between atoms: _486  and  _487
REMARK  196  A    between atoms: _492  and  _494
REMARK  197  A    between atoms: _494  and  _495
REMARK  198  A    between atoms: _494  and  _497
REMARK  199  A    between atoms: _497  and  _498
REMARK  200  A    between atoms: _498  and  _499
REMARK  201  A    between atoms: _499  and  _500
REMARK  202  A    between atoms: _509  and  _511
REMARK  203  A    between atoms: _511  and  _512
REMARK  204  A    between atoms: _511  and  _514
REMARK  205  A    between atoms: _514  and  _515
REMARK  206  A    between atoms: _518  and  _520
REMARK  207  A    between atoms: _520  and  _521
REMARK  208  A    between atoms: _520  and  _523
REMARK  209  A    between atoms: _526  and  _528
REMARK  210  A    between atoms: _528  and  _529
REMARK  211  A    between atoms: _531  and  _533
REMARK  212  A    between atoms: _533  and  _534
REMARK  213  A    between atoms: _537  and  _539
REMARK  214  A    between atoms: _539  and  _540
REMARK  215  A    between atoms: _539  and  _542
REMARK                            x       y       z     vdW  Elec       q    Type
REMARK                         _______ _______ _______ _____ _____    ______ ____
ROOT
ATOM      1  O   HOH     1      19.741  10.564  26.230  0.00  0.00    +0.000 OA
ENDROOT
TORSDOF 0
REMARK  Name = ../refined-set-2016/4h3j/4h3j_pocket.pdb
REMARK  215 active torsions:
REMARK  status: ('A' for Active; 'I' for Inactive)
REMARK    1  A    between atoms: _1  and  _3
REMARK    2  A    between atoms: _3  and  _4
REMARK    3  A    between atoms: _3  and  _6
REMARK    4  A    between atoms: _6  and  _7
REMARK    5  A    between atoms: _7  and  _8
REMARK    6  A    between atoms: _8  and  _9
REMARK    7  A    between atoms: _9  and  _10
REMARK    8  A    between atoms: _14  and  _16
REMARK    9  A    between atoms: _16  and  _17
REMARK   10  A    between atoms: _16  and  _19
REMARK   11  A    between atoms: _19  and  _20
REMARK   12  A    between atoms: _22  and  _24
REMARK   13  A    between atoms: _24  and  _25
REMARK   14  A    between atoms: _27  and  _29
REMARK   15  A    between atoms: _29  and  _30
REMARK   16  A    between atoms: _29  and  _32
REMARK   17  A    between atoms: _32  and  _33
REMARK   18  A    between atoms: _33  and  _34
REMARK   19  A    between atoms: _39  and  _41
REMARK   20  A    between atoms: _41  and  _42
REMARK   21  A    between atoms: _44  and  _46
REMARK   22  A    between atoms: _46  and  _47
REMARK   23  A    between atoms: _46  and  _49
REMARK   24  A    between atoms: _49  and  _50
REMARK   25  A    between atoms: _55  and  _56
REMARK   26  A    between atoms: _58  and  _60
REMARK   27  A    between atoms: _60  and  _61
REMARK   28  A    between atoms: _60  and  _63
REMARK   29  A    between atoms: _63  and  _64
REMARK   30  A    between atoms: _67  and  _69
REMARK   31  A    between atoms: _69  and  _70
REMARK   32  A    between atoms: _69  and  _72
REMARK   33  A    between atoms: _75  and  _77
REMARK   34  A    between atoms: _77  and  _78
REMARK   35  A    between atoms: _77  and  _80
REMARK   36  A    between atoms: _80  and  _81
REMARK   37  A    between atoms: _84  and  _86
REMARK   38  A    between atoms: _86  and  _87
REMARK   39  A    between atoms: _86  and  _89
REMARK   40  A    between atoms: _89  and  _90
REMARK   41  A    between atoms: _93  and  _95
REMARK   42  A    between atoms: _95  and  _96
REMARK   43  A    between atoms: _98  and  _100
REMARK   44  A    between atoms: _100  and  _101
REMARK   45  A    between atoms: _100  and  _103
REMARK   46  A    between atoms: _103  and  _104
REMARK   47  A    between atoms: _106  and  _108
REMARK   48  A    between atoms: _108  and  _109
REMARK   49  A    between atoms: _108  and  _111
REMARK   50  A    between atoms: _111  and  _112
REMARK   51  A    between atoms: _114  and  _116
REMARK   52  A    between atoms: _116  and  _117
REMARK   53  A    between atoms: _116  and  _119
REMARK   54  A    between atoms: _119  and  _120
REMARK   55  A    between atoms: _125  and  _127
REMARK   56  A    between atoms: _127  and  _128
REMARK   57  A    between atoms: _127  and  _130
REMARK   58  A    between atoms: _130  and  _131
REMARK   59  A    between atoms: _137  and  _139
REMARK   60  A    between atoms: _139  and  _140
REMARK   61  A    between atoms: _143  and  _145
REMARK   62  A    between atoms: _145  and  _146
REMARK   63  A    between atoms: _145  and  _148
REMARK   64  A    between atoms: _151  and  _153
REMARK   65  A    between atoms: _153  and  _154
REMARK   66  A    between atoms: _153  and  _156
REMARK   67  A    between atoms: _156  and  _157
REMARK   68  A    between atoms: _162  and  _163
REMARK   69  A    between atoms: _165  and  _167
REMARK   70  A    between atoms: _167  and  _168
REMARK   71  A    between atoms: _167  and  _170
REMARK   72  A    between atoms: _174  and  _175
REMARK   73  A    between atoms: _180  and  _182
REMARK   74  A    between atoms: _182  and  _183
REMARK   75  A    between atoms: _182  and  _185
REMARK   76  A    between atoms: _185  and  _186
REMARK   77  A    between atoms: _191  and  _192
REMARK   78  A    between atoms: _194  and  _196
REMARK   79  A    between atoms: _196  and  _197
REMARK   80  A    between atoms: _196  and  _199
REMARK   81  A    between atoms: _199  and  _200
REMARK   82  A    between atoms: _203  and  _205
REMARK   83  A    between atoms: _205  and  _206
REMARK   84  A    between atoms: _205  and  _208
REMARK   85  A    between atoms: _208  and  _209
REMARK   86  A    between atoms: _209  and  _210
REMARK   87  A    between atoms: _215  and  _217
REMARK   88  A    between atoms: _217  and  _218
REMARK   89  A    between atoms: _220  and  _222
REMARK   90  A    between atoms: _222  and  _223
REMARK   91  A    between atoms: _222  and  _225
REMARK   92  A    between atoms: _225  and  _226
REMARK   93  A    between atoms: _226  and  _227
REMARK   94  A    between atoms: _227  and  _228
REMARK   95  A    between atoms: _228  and  _229
REMARK   96  A    between atoms: _233  and  _235
REMARK   97  A    between atoms: _235  and  _236
REMARK   98  A    between atoms: _235  and  _238
REMARK   99  A    between atoms: _238  and  _239
REMARK  100  A    between atoms: _249  and  _251
REMARK  101  A    between atoms: _251  and  _252
REMARK  102  A    between atoms: _255  and  _257
REMARK  103  A    between atoms: _257  and  _258
REMARK  104  A    between atoms: _257  and  _260
REMARK  105  A    between atoms: _260  and  _261
REMARK  106  A    between atoms: _261  and  _262
REMARK  107  A    between atoms: _262  and  _263
REMARK  108  A    between atoms: _263  and  _264
REMARK  109  A    between atoms: _268  and  _270
REMARK  110  A    between atoms: _270  and  _271
REMARK  111  A    between atoms: _270  and  _273
REMARK  112  A    between atoms: _273  and  _274
REMARK  113  A    between atoms: _280  and  _282
REMARK  114  A    between atoms: _282  and  _283
REMARK  115  A    between atoms: _282  and  _285
REMARK  116  A    between atoms: _285  and  _286
REMARK  117  A    between atoms: _292  and  _294
REMARK  118  A    between atoms: _294  and  _295
REMARK  119  A    between atoms: _294  and  _297
REMARK  120  A    between atoms: _297  and  _298
REMARK  121  A    between atoms: _301  and  _303
REMARK  122  A    between atoms: _303  and  _304
REMARK  123  A    between atoms: _303  and  _306
REMARK  124  A    between atoms: _306  and  _307
REMARK  125  A    between atoms: _309  and  _311
REMARK  126  A    between atoms: _311  and  _312
REMARK  127  A    between atoms: _311  and  _314
REMARK  128  A    between atoms: _314  and  _315
REMARK  129  A    between atoms: _325  and  _327
REMARK  130  A    between atoms: _327  and  _328
REMARK  131  A    between atoms: _330  and  _332
REMARK  132  A    between atoms: _332  and  _333
REMARK  133  A    between atoms: _332  and  _335
REMARK  134  A    between atoms: _335  and  _336
REMARK  135  A    between atoms: _339  and  _341
REMARK  136  A    between atoms: _341  and  _342
REMARK  137  A    between atoms: _341  and  _344
REMARK  138  A    between atoms: _344  and  _345
REMARK  139  A    between atoms: _348  and  _350
REMARK  140  A    between atoms: _350  and  _351
REMARK  141  A    between atoms: _353  and  _355
REMARK  142  A    between atoms: _355  and  _356
REMARK  143  A    between atoms: _355  and  _358
REMARK  144  A    between atoms: _358  and  _359
REMARK  145  A    between atoms: _362  and  _364
REMARK  146  A    between atoms: _364  and  _365
REMARK  147  A    between atoms: _364  and  _367
REMARK  148  A    between atoms: _367  and  _368
REMARK  149  A    between atoms: _371  and  _373
REMARK  150  A    between atoms: _373  and  _374
REMARK  151  A    between atoms: _377  and  _379
REMARK  152  A    between atoms: _379  and  _380
REMARK  153  A    between atoms: _379  and  _382
REMARK  154  A    between atoms: _382  and  _383
REMARK  155  A    between atoms: _383  and  _384
REMARK  156  A    between atoms: _384  and  _385
REMARK  157  A    between atoms: _395  and  _396
REMARK  158  A    between atoms: _401  and  _403
REMARK  159  A    between atoms: _403  and  _404
REMARK  160  A    between atoms: _403  and  _406
REMARK  161  A    between atoms: _406  and  _407
REMARK  162  A    between atoms: _410  and  _412
REMARK  163  A    between atoms: _412  and  _413
REMARK  164  A    between atoms: _412  and  _415
REMARK  165  A    between atoms: _415  and  _416
REMARK  166  A    between atoms: _421  and  _422
REMARK  167  A    between atoms: _424  and  _426
REMARK  168  A    between atoms: _426  and  _427
REMARK  169  A    between atoms: _426  and  _429
REMARK  170  A    between atoms: _429  and  _430
REMARK  171  A    between atoms: _433  and  _435
REMARK  172  A    between atoms: _435  and  _436
REMARK  173  A    between atoms: _435  and  _438
REMARK  174  A    between atoms: _441  and  _443
REMARK  175  A    between atoms: _443  and  _444
REMARK  176  A    between atoms: _443  and  _446
REMARK  177  A    between atoms: _446  and  _447
REMARK  178  A    between atoms: _450  and  _452
REMARK  179  A    between atoms: _452  and  _453
REMARK  180  A    between atoms: _452  and  _455
REMARK  181  A    between atoms: _455  and  _456
REMARK  182  A    between atoms: _458  and  _460
REMARK  183  A    between atoms: _460  and  _461
REMARK  184  A    between atoms: _463  and  _465
REMARK  185  A    between atoms: _465  and  _466
REMARK  186  A    between atoms: _465  and  _468
REMARK  187  A    between atoms: _468  and  _469
REMARK  188  A    between atoms: _472  and  _474
REMARK  189  A    between atoms: _474  and  _475
REMARK  190  A    between atoms: _474  and  _477
REMARK  191  A    between atoms: _477  and  _478
REMARK  192  A    between atoms: _481  and  _483
REMARK  193  A    between atoms: _483  and  _484
REMARK  194  A    between atoms: _483  and  _486
REMARK  195  A    between atoms: _486  and  _487
REMARK  196  A    between atoms: _492  and  _494
REMARK  197  A    between atoms: _494  and  _495
REMARK  198  A    between atoms: _494  and  _497
REMARK  199  A    between atoms: _497  and  _498
REMARK  200  A    between atoms: _498  and  _499
REMARK  201  A    between atoms: _499  and  _500
REMARK  202  A    between atoms: _509  and  _511
REMARK  203  A    between atoms: _511  and  _512
REMARK  204  A    between atoms: _511  and  _514
REMARK  205  A    between atoms: _514  and  _515
REMARK  206  A    between atoms: _518  and  _520
REMARK  207  A    between atoms: _520  and  _521
REMARK  208  A    between atoms: _520  and  _523
REMARK  209  A    between atoms: _526  and  _528
REMARK  210  A    between atoms: _528  and  _529
REMARK  211  A    between atoms: _531  and  _533
REMARK  212  A    between atoms: _533  and  _534
REMARK  213  A    between atoms: _537  and  _539
REMARK  214  A    between atoms: _539  and  _540
REMARK  215  A    between atoms: _539  and  _542
REMARK                            x       y       z     vdW  Elec       q    Type
REMARK                         _______ _______ _______ _____ _____    ______ ____
ROOT
ATOM      1  O   HOH     1       8.465   7.452  24.616  0.00  0.00    +0.000 OA
ENDROOT
TORSDOF 0
REMARK  Name = ../refined-set-2016/4h3j/4h3j_pocket.pdb
REMARK  215 active torsions:
REMARK  status: ('A' for Active; 'I' for Inactive)
REMARK    1  A    between atoms: _1  and  _3
REMARK    2  A    between atoms: _3  and  _4
REMARK    3  A    between atoms: _3  and  _6
REMARK    4  A    between atoms: _6  and  _7
REMARK    5  A    between atoms: _7  and  _8
REMARK    6  A    between atoms: _8  and  _9
REMARK    7  A    between atoms: _9  and  _10
REMARK    8  A    between atoms: _14  and  _16
REMARK    9  A    between atoms: _16  and  _17
REMARK   10  A    between atoms: _16  and  _19
REMARK   11  A    between atoms: _19  and  _20
REMARK   12  A    between atoms: _22  and  _24
REMARK   13  A    between atoms: _24  and  _25
REMARK   14  A    between atoms: _27  and  _29
REMARK   15  A    between atoms: _29  and  _30
REMARK   16  A    between atoms: _29  and  _32
REMARK   17  A    between atoms: _32  and  _33
REMARK   18  A    between atoms: _33  and  _34
REMARK   19  A    between atoms: _39  and  _41
REMARK   20  A    between atoms: _41  and  _42
REMARK   21  A    between atoms: _44  and  _46
REMARK   22  A    between atoms: _46  and  _47
REMARK   23  A    between atoms: _46  and  _49
REMARK   24  A    between atoms: _49  and  _50
REMARK   25  A    between atoms: _55  and  _56
REMARK   26  A    between atoms: _58  and  _60
REMARK   27  A    between atoms: _60  and  _61
REMARK   28  A    between atoms: _60  and  _63
REMARK   29  A    between atoms: _63  and  _64
REMARK   30  A    between atoms: _67  and  _69
REMARK   31  A    between atoms: _69  and  _70
REMARK   32  A    between atoms: _69  and  _72
REMARK   33  A    between atoms: _75  and  _77
REMARK   34  A    between atoms: _77  and  _78
REMARK   35  A    between atoms: _77  and  _80
REMARK   36  A    between atoms: _80  and  _81
REMARK   37  A    between atoms: _84  and  _86
REMARK   38  A    between atoms: _86  and  _87
REMARK   39  A    between atoms: _86  and  _89
REMARK   40  A    between atoms: _89  and  _90
REMARK   41  A    between atoms: _93  and  _95
REMARK   42  A    between atoms: _95  and  _96
REMARK   43  A    between atoms: _98  and  _100
REMARK   44  A    between atoms: _100  and  _101
REMARK   45  A    between atoms: _100  and  _103
REMARK   46  A    between atoms: _103  and  _104
REMARK   47  A    between atoms: _106  and  _108
REMARK   48  A    between atoms: _108  and  _109
REMARK   49  A    between atoms: _108  and  _111
REMARK   50  A    between atoms: _111  and  _112
REMARK   51  A    between atoms: _114  and  _116
REMARK   52  A    between atoms: _116  and  _117
REMARK   53  A    between atoms: _116  and  _119
REMARK   54  A    between atoms: _119  and  _120
REMARK   55  A    between atoms: _125  and  _127
REMARK   56  A    between atoms: _127  and  _128
REMARK   57  A    between atoms: _127  and  _130
REMARK   58  A    between atoms: _130  and  _131
REMARK   59  A    between atoms: _137  and  _139
REMARK   60  A    between atoms: _139  and  _140
REMARK   61  A    between atoms: _143  and  _145
REMARK   62  A    between atoms: _145  and  _146
REMARK   63  A    between atoms: _145  and  _148
REMARK   64  A    between atoms: _151  and  _153
REMARK   65  A    between atoms: _153  and  _154
REMARK   66  A    between atoms: _153  and  _156
REMARK   67  A    between atoms: _156  and  _157
REMARK   68  A    between atoms: _162  and  _163
REMARK   69  A    between atoms: _165  and  _167
REMARK   70  A    between atoms: _167  and  _168
REMARK   71  A    between atoms: _167  and  _170
REMARK   72  A    between atoms: _174  and  _175
REMARK   73  A    between atoms: _180  and  _182
REMARK   74  A    between atoms: _182  and  _183
REMARK   75  A    between atoms: _182  and  _185
REMARK   76  A    between atoms: _185  and  _186
REMARK   77  A    between atoms: _191  and  _192
REMARK   78  A    between atoms: _194  and  _196
REMARK   79  A    between atoms: _196  and  _197
REMARK   80  A    between atoms: _196  and  _199
REMARK   81  A    between atoms: _199  and  _200
REMARK   82  A    between atoms: _203  and  _205
REMARK   83  A    between atoms: _205  and  _206
REMARK   84  A    between atoms: _205  and  _208
REMARK   85  A    between atoms: _208  and  _209
REMARK   86  A    between atoms: _209  and  _210
REMARK   87  A    between atoms: _215  and  _217
REMARK   88  A    between atoms: _217  and  _218
REMARK   89  A    between atoms: _220  and  _222
REMARK   90  A    between atoms: _222  and  _223
REMARK   91  A    between atoms: _222  and  _225
REMARK   92  A    between atoms: _225  and  _226
REMARK   93  A    between atoms: _226  and  _227
REMARK   94  A    between atoms: _227  and  _228
REMARK   95  A    between atoms: _228  and  _229
REMARK   96  A    between atoms: _233  and  _235
REMARK   97  A    between atoms: _235  and  _236
REMARK   98  A    between atoms: _235  and  _238
REMARK   99  A    between atoms: _238  and  _239
REMARK  100  A    between atoms: _249  and  _251
REMARK  101  A    between atoms: _251  and  _252
REMARK  102  A    between atoms: _255  and  _257
REMARK  103  A    between atoms: _257  and  _258
REMARK  104  A    between atoms: _257  and  _260
REMARK  105  A    between atoms: _260  and  _261
REMARK  106  A    between atoms: _261  and  _262
REMARK  107  A    between atoms: _262  and  _263
REMARK  108  A    between atoms: _263  and  _264
REMARK  109  A    between atoms: _268  and  _270
REMARK  110  A    between atoms: _270  and  _271
REMARK  111  A    between atoms: _270  and  _273
REMARK  112  A    between atoms: _273  and  _274
REMARK  113  A    between atoms: _280  and  _282
REMARK  114  A    between atoms: _282  and  _283
REMARK  115  A    between atoms: _282  and  _285
REMARK  116  A    between atoms: _285  and  _286
REMARK  117  A    between atoms: _292  and  _294
REMARK  118  A    between atoms: _294  and  _295
REMARK  119  A    between atoms: _294  and  _297
REMARK  120  A    between atoms: _297  and  _298
REMARK  121  A    between atoms: _301  and  _303
REMARK  122  A    between atoms: _303  and  _304
REMARK  123  A    between atoms: _303  and  _306
REMARK  124  A    between atoms: _306  and  _307
REMARK  125  A    between atoms: _309  and  _311
REMARK  126  A    between atoms: _311  and  _312
REMARK  127  A    between atoms: _311  and  _314
REMARK  128  A    between atoms: _314  and  _315
REMARK  129  A    between atoms: _325  and  _327
REMARK  130  A    between atoms: _327  and  _328
REMARK  131  A    between atoms: _330  and  _332
REMARK  132  A    between atoms: _332  and  _333
REMARK  133  A    between atoms: _332  and  _335
REMARK  134  A    between atoms: _335  and  _336
REMARK  135  A    between atoms: _339  and  _341
REMARK  136  A    between atoms: _341  and  _342
REMARK  137  A    between atoms: _341  and  _344
REMARK  138  A    between atoms: _344  and  _345
REMARK  139  A    between atoms: _348  and  _350
REMARK  140  A    between atoms: _350  and  _351
REMARK  141  A    between atoms: _353  and  _355
REMARK  142  A    between atoms: _355  and  _356
REMARK  143  A    between atoms: _355  and  _358
REMARK  144  A    between atoms: _358  and  _359
REMARK  145  A    between atoms: _362  and  _364
REMARK  146  A    between atoms: _364  and  _365
REMARK  147  A    between atoms: _364  and  _367
REMARK  148  A    between atoms: _367  and  _368
REMARK  149  A    between atoms: _371  and  _373
REMARK  150  A    between atoms: _373  and  _374
REMARK  151  A    between atoms: _377  and  _379
REMARK  152  A    between atoms: _379  and  _380
REMARK  153  A    between atoms: _379  and  _382
REMARK  154  A    between atoms: _382  and  _383
REMARK  155  A    between atoms: _383  and  _384
REMARK  156  A    between atoms: _384  and  _385
REMARK  157  A    between atoms: _395  and  _396
REMARK  158  A    between atoms: _401  and  _403
REMARK  159  A    between atoms: _403  and  _404
REMARK  160  A    between atoms: _403  and  _406
REMARK  161  A    between atoms: _406  and  _407
REMARK  162  A    between atoms: _410  and  _412
REMARK  163  A    between atoms: _412  and  _413
REMARK  164  A    between atoms: _412  and  _415
REMARK  165  A    between atoms: _415  and  _416
REMARK  166  A    between atoms: _421  and  _422
REMARK  167  A    between atoms: _424  and  _426
REMARK  168  A    between atoms: _426  and  _427
REMARK  169  A    between atoms: _426  and  _429
REMARK  170  A    between atoms: _429  and  _430
REMARK  171  A    between atoms: _433  and  _435
REMARK  172  A    between atoms: _435  and  _436
REMARK  173  A    between atoms: _435  and  _438
REMARK  174  A    between atoms: _441  and  _443
REMARK  175  A    between atoms: _443  and  _444
REMARK  176  A    between atoms: _443  and  _446
REMARK  177  A    between atoms: _446  and  _447
REMARK  178  A    between atoms: _450  and  _452
REMARK  179  A    between atoms: _452  and  _453
REMARK  180  A    between atoms: _452  and  _455
REMARK  181  A    between atoms: _455  and  _456
REMARK  182  A    between atoms: _458  and  _460
REMARK  183  A    between atoms: _460  and  _461
REMARK  184  A    between atoms: _463  and  _465
REMARK  185  A    between atoms: _465  and  _466
REMARK  186  A    between atoms: _465  and  _468
REMARK  187  A    between atoms: _468  and  _469
REMARK  188  A    between atoms: _472  and  _474
REMARK  189  A    between atoms: _474  and  _475
REMARK  190  A    between atoms: _474  and  _477
REMARK  191  A    between atoms: _477  and  _478
REMARK  192  A    between atoms: _481  and  _483
REMARK  193  A    between atoms: _483  and  _484
REMARK  194  A    between atoms: _483  and  _486
REMARK  195  A    between atoms: _486  and  _487
REMARK  196  A    between atoms: _492  and  _494
REMARK  197  A    between atoms: _494  and  _495
REMARK  198  A    between atoms: _494  and  _497
REMARK  199  A    between atoms: _497  and  _498
REMARK  200  A    between atoms: _498  and  _499
REMARK  201  A    between atoms: _499  and  _500
REMARK  202  A    between atoms: _509  and  _511
REMARK  203  A    between atoms: _511  and  _512
REMARK  204  A    between atoms: _511  and  _514
REMARK  205  A    between atoms: _514  and  _515
REMARK  206  A    between atoms: _518  and  _520
REMARK  207  A    between atoms: _520  and  _521
REMARK  208  A    between atoms: _520  and  _523
REMARK  209  A    between atoms: _526  and  _528
REMARK  210  A    between atoms: _528  and  _529
REMARK  211  A    between atoms: _531  and  _533
REMARK  212  A    between atoms: _533  and  _534
REMARK  213  A    between atoms: _537  and  _539
REMARK  214  A    between atoms: _539  and  _540
REMARK  215  A    between atoms: _539  and  _542
REMARK                            x       y       z     vdW  Elec       q    Type
REMARK                         _______ _______ _______ _____ _____    ______ ____
ROOT
ATOM      1  O   HOH     1      26.347  12.724  23.942  0.00  0.00    +0.000 OA
ENDROOT
TORSDOF 0
REMARK  Name = ../refined-set-2016/4h3j/4h3j_pocket.pdb
REMARK  215 active torsions:
REMARK  status: ('A' for Active; 'I' for Inactive)
REMARK    1  A    between atoms: _1  and  _3
REMARK    2  A    between atoms: _3  and  _4
REMARK    3  A    between atoms: _3  and  _6
REMARK    4  A    between atoms: _6  and  _7
REMARK    5  A    between atoms: _7  and  _8
REMARK    6  A    between atoms: _8  and  _9
REMARK    7  A    between atoms: _9  and  _10
REMARK    8  A    between atoms: _14  and  _16
REMARK    9  A    between atoms: _16  and  _17
REMARK   10  A    between atoms: _16  and  _19
REMARK   11  A    between atoms: _19  and  _20
REMARK   12  A    between atoms: _22  and  _24
REMARK   13  A    between atoms: _24  and  _25
REMARK   14  A    between atoms: _27  and  _29
REMARK   15  A    between atoms: _29  and  _30
REMARK   16  A    between atoms: _29  and  _32
REMARK   17  A    between atoms: _32  and  _33
REMARK   18  A    between atoms: _33  and  _34
REMARK   19  A    between atoms: _39  and  _41
REMARK   20  A    between atoms: _41  and  _42
REMARK   21  A    between atoms: _44  and  _46
REMARK   22  A    between atoms: _46  and  _47
REMARK   23  A    between atoms: _46  and  _49
REMARK   24  A    between atoms: _49  and  _50
REMARK   25  A    between atoms: _55  and  _56
REMARK   26  A    between atoms: _58  and  _60
REMARK   27  A    between atoms: _60  and  _61
REMARK   28  A    between atoms: _60  and  _63
REMARK   29  A    between atoms: _63  and  _64
REMARK   30  A    between atoms: _67  and  _69
REMARK   31  A    between atoms: _69  and  _70
REMARK   32  A    between atoms: _69  and  _72
REMARK   33  A    between atoms: _75  and  _77
REMARK   34  A    between atoms: _77  and  _78
REMARK   35  A    between atoms: _77  and  _80
REMARK   36  A    between atoms: _80  and  _81
REMARK   37  A    between atoms: _84  and  _86
REMARK   38  A    between atoms: _86  and  _87
REMARK   39  A    between atoms: _86  and  _89
REMARK   40  A    between atoms: _89  and  _90
REMARK   41  A    between atoms: _93  and  _95
REMARK   42  A    between atoms: _95  and  _96
REMARK   43  A    between atoms: _98  and  _100
REMARK   44  A    between atoms: _100  and  _101
REMARK   45  A    between atoms: _100  and  _103
REMARK   46  A    between atoms: _103  and  _104
REMARK   47  A    between atoms: _106  and  _108
REMARK   48  A    between atoms: _108  and  _109
REMARK   49  A    between atoms: _108  and  _111
REMARK   50  A    between atoms: _111  and  _112
REMARK   51  A    between atoms: _114  and  _116
REMARK   52  A    between atoms: _116  and  _117
REMARK   53  A    between atoms: _116  and  _119
REMARK   54  A    between atoms: _119  and  _120
REMARK   55  A    between atoms: _125  and  _127
REMARK   56  A    between atoms: _127  and  _128
REMARK   57  A    between atoms: _127  and  _130
REMARK   58  A    between atoms: _130  and  _131
REMARK   59  A    between atoms: _137  and  _139
REMARK   60  A    between atoms: _139  and  _140
REMARK   61  A    between atoms: _143  and  _145
REMARK   62  A    between atoms: _145  and  _146
REMARK   63  A    between atoms: _145  and  _148
REMARK   64  A    between atoms: _151  and  _153
REMARK   65  A    between atoms: _153  and  _154
REMARK   66  A    between atoms: _153  and  _156
REMARK   67  A    between atoms: _156  and  _157
REMARK   68  A    between atoms: _162  and  _163
REMARK   69  A    between atoms: _165  and  _167
REMARK   70  A    between atoms: _167  and  _168
REMARK   71  A    between atoms: _167  and  _170
REMARK   72  A    between atoms: _174  and  _175
REMARK   73  A    between atoms: _180  and  _182
REMARK   74  A    between atoms: _182  and  _183
REMARK   75  A    between atoms: _182  and  _185
REMARK   76  A    between atoms: _185  and  _186
REMARK   77  A    between atoms: _191  and  _192
REMARK   78  A    between atoms: _194  and  _196
REMARK   79  A    between atoms: _196  and  _197
REMARK   80  A    between atoms: _196  and  _199
REMARK   81  A    between atoms: _199  and  _200
REMARK   82  A    between atoms: _203  and  _205
REMARK   83  A    between atoms: _205  and  _206
REMARK   84  A    between atoms: _205  and  _208
REMARK   85  A    between atoms: _208  and  _209
REMARK   86  A    between atoms: _209  and  _210
REMARK   87  A    between atoms: _215  and  _217
REMARK   88  A    between atoms: _217  and  _218
REMARK   89  A    between atoms: _220  and  _222
REMARK   90  A    between atoms: _222  and  _223
REMARK   91  A    between atoms: _222  and  _225
REMARK   92  A    between atoms: _225  and  _226
REMARK   93  A    between atoms: _226  and  _227
REMARK   94  A    between atoms: _227  and  _228
REMARK   95  A    between atoms: _228  and  _229
REMARK   96  A    between atoms: _233  and  _235
REMARK   97  A    between atoms: _235  and  _236
REMARK   98  A    between atoms: _235  and  _238
REMARK   99  A    between atoms: _238  and  _239
REMARK  100  A    between atoms: _249  and  _251
REMARK  101  A    between atoms: _251  and  _252
REMARK  102  A    between atoms: _255  and  _257
REMARK  103  A    between atoms: _257  and  _258
REMARK  104  A    between atoms: _257  and  _260
REMARK  105  A    between atoms: _260  and  _261
REMARK  106  A    between atoms: _261  and  _262
REMARK  107  A    between atoms: _262  and  _263
REMARK  108  A    between atoms: _263  and  _264
REMARK  109  A    between atoms: _268  and  _270
REMARK  110  A    between atoms: _270  and  _271
REMARK  111  A    between atoms: _270  and  _273
REMARK  112  A    between atoms: _273  and  _274
REMARK  113  A    between atoms: _280  and  _282
REMARK  114  A    between atoms: _282  and  _283
REMARK  115  A    between atoms: _282  and  _285
REMARK  116  A    between atoms: _285  and  _286
REMARK  117  A    between atoms: _292  and  _294
REMARK  118  A    between atoms: _294  and  _295
REMARK  119  A    between atoms: _294  and  _297
REMARK  120  A    between atoms: _297  and  _298
REMARK  121  A    between atoms: _301  and  _303
REMARK  122  A    between atoms: _303  and  _304
REMARK  123  A    between atoms: _303  and  _306
REMARK  124  A    between atoms: _306  and  _307
REMARK  125  A    between atoms: _309  and  _311
REMARK  126  A    between atoms: _311  and  _312
REMARK  127  A    between atoms: _311  and  _314
REMARK  128  A    between atoms: _314  and  _315
REMARK  129  A    between atoms: _325  and  _327
REMARK  130  A    between atoms: _327  and  _328
REMARK  131  A    between atoms: _330  and  _332
REMARK  132  A    between atoms: _332  and  _333
REMARK  133  A    between atoms: _332  and  _335
REMARK  134  A    between atoms: _335  and  _336
REMARK  135  A    between atoms: _339  and  _341
REMARK  136  A    between atoms: _341  and  _342
REMARK  137  A    between atoms: _341  and  _344
REMARK  138  A    between atoms: _344  and  _345
REMARK  139  A    between atoms: _348  and  _350
REMARK  140  A    between atoms: _350  and  _351
REMARK  141  A    between atoms: _353  and  _355
REMARK  142  A    between atoms: _355  and  _356
REMARK  143  A    between atoms: _355  and  _358
REMARK  144  A    between atoms: _358  and  _359
REMARK  145  A    between atoms: _362  and  _364
REMARK  146  A    between atoms: _364  and  _365
REMARK  147  A    between atoms: _364  and  _367
REMARK  148  A    between atoms: _367  and  _368
REMARK  149  A    between atoms: _371  and  _373
REMARK  150  A    between atoms: _373  and  _374
REMARK  151  A    between atoms: _377  and  _379
REMARK  152  A    between atoms: _379  and  _380
REMARK  153  A    between atoms: _379  and  _382
REMARK  154  A    between atoms: _382  and  _383
REMARK  155  A    between atoms: _383  and  _384
REMARK  156  A    between atoms: _384  and  _385
REMARK  157  A    between atoms: _395  and  _396
REMARK  158  A    between atoms: _401  and  _403
REMARK  159  A    between atoms: _403  and  _404
REMARK  160  A    between atoms: _403  and  _406
REMARK  161  A    between atoms: _406  and  _407
REMARK  162  A    between atoms: _410  and  _412
REMARK  163  A    between atoms: _412  and  _413
REMARK  164  A    between atoms: _412  and  _415
REMARK  165  A    between atoms: _415  and  _416
REMARK  166  A    between atoms: _421  and  _422
REMARK  167  A    between atoms: _424  and  _426
REMARK  168  A    between atoms: _426  and  _427
REMARK  169  A    between atoms: _426  and  _429
REMARK  170  A    between atoms: _429  and  _430
REMARK  171  A    between atoms: _433  and  _435
REMARK  172  A    between atoms: _435  and  _436
REMARK  173  A    between atoms: _435  and  _438
REMARK  174  A    between atoms: _441  and  _443
REMARK  175  A    between atoms: _443  and  _444
REMARK  176  A    between atoms: _443  and  _446
REMARK  177  A    between atoms: _446  and  _447
REMARK  178  A    between atoms: _450  and  _452
REMARK  179  A    between atoms: _452  and  _453
REMARK  180  A    between atoms: _452  and  _455
REMARK  181  A    between atoms: _455  and  _456
REMARK  182  A    between atoms: _458  and  _460
REMARK  183  A    between atoms: _460  and  _461
REMARK  184  A    between atoms: _463  and  _465
REMARK  185  A    between atoms: _465  and  _466
REMARK  186  A    between atoms: _465  and  _468
REMARK  187  A    between atoms: _468  and  _469
REMARK  188  A    between atoms: _472  and  _474
REMARK  189  A    between atoms: _474  and  _475
REMARK  190  A    between atoms: _474  and  _477
REMARK  191  A    between atoms: _477  and  _478
REMARK  192  A    between atoms: _481  and  _483
REMARK  193  A    between atoms: _483  and  _484
REMARK  194  A    between atoms: _483  and  _486
REMARK  195  A    between atoms: _486  and  _487
REMARK  196  A    between atoms: _492  and  _494
REMARK  197  A    between atoms: _494  and  _495
REMARK  198  A    between atoms: _494  and  _497
REMARK  199  A    between atoms: _497  and  _498
REMARK  200  A    between atoms: _498  and  _499
REMARK  201  A    between atoms: _499  and  _500
REMARK  202  A    between atoms: _509  and  _511
REMARK  203  A    between atoms: _511  and  _512
REMARK  204  A    between atoms: _511  and  _514
REMARK  205  A    between atoms: _514  and  _515
REMARK  206  A    between atoms: _518  and  _520
REMARK  207  A    between atoms: _520  and  _521
REMARK  208  A    between atoms: _520  and  _523
REMARK  209  A    between atoms: _526  and  _528
REMARK  210  A    between atoms: _528  and  _529
REMARK  211  A    between atoms: _531  and  _533
REMARK  212  A    between atoms: _533  and  _534
REMARK  213  A    between atoms: _537  and  _539
REMARK  214  A    between atoms: _539  and  _540
REMARK  215  A    between atoms: _539  and  _542
REMARK                            x       y       z     vdW  Elec       q    Type
REMARK                         _______ _______ _______ _____ _____    ______ ____
ROOT
ATOM      1  O   HOH     1      17.070   9.336  25.163  0.00  0.00    +0.000 OA
ENDROOT
TORSDOF 0
REMARK  Name = ../refined-set-2016/4h3j/4h3j_pocket.pdb
REMARK  215 active torsions:
REMARK  status: ('A' for Active; 'I' for Inactive)
REMARK    1  A    between atoms: _1  and  _3
REMARK    2  A    between atoms: _3  and  _4
REMARK    3  A    between atoms: _3  and  _6
REMARK    4  A    between atoms: _6  and  _7
REMARK    5  A    between atoms: _7  and  _8
REMARK    6  A    between atoms: _8  and  _9
REMARK    7  A    between atoms: _9  and  _10
REMARK    8  A    between atoms: _14  and  _16
REMARK    9  A    between atoms: _16  and  _17
REMARK   10  A    between atoms: _16  and  _19
REMARK   11  A    between atoms: _19  and  _20
REMARK   12  A    between atoms: _22  and  _24
REMARK   13  A    between atoms: _24  and  _25
REMARK   14  A    between atoms: _27  and  _29
REMARK   15  A    between atoms: _29  and  _30
REMARK   16  A    between atoms: _29  and  _32
REMARK   17  A    between atoms: _32  and  _33
REMARK   18  A    between atoms: _33  and  _34
REMARK   19  A    between atoms: _39  and  _41
REMARK   20  A    between atoms: _41  and  _42
REMARK   21  A    between atoms: _44  and  _46
REMARK   22  A    between atoms: _46  and  _47
REMARK   23  A    between atoms: _46  and  _49
REMARK   24  A    between atoms: _49  and  _50
REMARK   25  A    between atoms: _55  and  _56
REMARK   26  A    between atoms: _58  and  _60
REMARK   27  A    between atoms: _60  and  _61
REMARK   28  A    between atoms: _60  and  _63
REMARK   29  A    between atoms: _63  and  _64
REMARK   30  A    between atoms: _67  and  _69
REMARK   31  A    between atoms: _69  and  _70
REMARK   32  A    between atoms: _69  and  _72
REMARK   33  A    between atoms: _75  and  _77
REMARK   34  A    between atoms: _77  and  _78
REMARK   35  A    between atoms: _77  and  _80
REMARK   36  A    between atoms: _80  and  _81
REMARK   37  A    between atoms: _84  and  _86
REMARK   38  A    between atoms: _86  and  _87
REMARK   39  A    between atoms: _86  and  _89
REMARK   40  A    between atoms: _89  and  _90
REMARK   41  A    between atoms: _93  and  _95
REMARK   42  A    between atoms: _95  and  _96
REMARK   43  A    between atoms: _98  and  _100
REMARK   44  A    between atoms: _100  and  _101
REMARK   45  A    between atoms: _100  and  _103
REMARK   46  A    between atoms: _103  and  _104
REMARK   47  A    between atoms: _106  and  _108
REMARK   48  A    between atoms: _108  and  _109
REMARK   49  A    between atoms: _108  and  _111
REMARK   50  A    between atoms: _111  and  _112
REMARK   51  A    between atoms: _114  and  _116
REMARK   52  A    between atoms: _116  and  _117
REMARK   53  A    between atoms: _116  and  _119
REMARK   54  A    between atoms: _119  and  _120
REMARK   55  A    between atoms: _125  and  _127
REMARK   56  A    between atoms: _127  and  _128
REMARK   57  A    between atoms: _127  and  _130
REMARK   58  A    between atoms: _130  and  _131
REMARK   59  A    between atoms: _137  and  _139
REMARK   60  A    between atoms: _139  and  _140
REMARK   61  A    between atoms: _143  and  _145
REMARK   62  A    between atoms: _145  and  _146
REMARK   63  A    between atoms: _145  and  _148
REMARK   64  A    between atoms: _151  and  _153
REMARK   65  A    between atoms: _153  and  _154
REMARK   66  A    between atoms: _153  and  _156
REMARK   67  A    between atoms: _156  and  _157
REMARK   68  A    between atoms: _162  and  _163
REMARK   69  A    between atoms: _165  and  _167
REMARK   70  A    between atoms: _167  and  _168
REMARK   71  A    between atoms: _167  and  _170
REMARK   72  A    between atoms: _174  and  _175
REMARK   73  A    between atoms: _180  and  _182
REMARK   74  A    between atoms: _182  and  _183
REMARK   75  A    between atoms: _182  and  _185
REMARK   76  A    between atoms: _185  and  _186
REMARK   77  A    between atoms: _191  and  _192
REMARK   78  A    between atoms: _194  and  _196
REMARK   79  A    between atoms: _196  and  _197
REMARK   80  A    between atoms: _196  and  _199
REMARK   81  A    between atoms: _199  and  _200
REMARK   82  A    between atoms: _203  and  _205
REMARK   83  A    between atoms: _205  and  _206
REMARK   84  A    between atoms: _205  and  _208
REMARK   85  A    between atoms: _208  and  _209
REMARK   86  A    between atoms: _209  and  _210
REMARK   87  A    between atoms: _215  and  _217
REMARK   88  A    between atoms: _217  and  _218
REMARK   89  A    between atoms: _220  and  _222
REMARK   90  A    between atoms: _222  and  _223
REMARK   91  A    between atoms: _222  and  _225
REMARK   92  A    between atoms: _225  and  _226
REMARK   93  A    between atoms: _226  and  _227
REMARK   94  A    between atoms: _227  and  _228
REMARK   95  A    between atoms: _228  and  _229
REMARK   96  A    between atoms: _233  and  _235
REMARK   97  A    between atoms: _235  and  _236
REMARK   98  A    between atoms: _235  and  _238
REMARK   99  A    between atoms: _238  and  _239
REMARK  100  A    between atoms: _249  and  _251
REMARK  101  A    between atoms: _251  and  _252
REMARK  102  A    between atoms: _255  and  _257
REMARK  103  A    between atoms: _257  and  _258
REMARK  104  A    between atoms: _257  and  _260
REMARK  105  A    between atoms: _260  and  _261
REMARK  106  A    between atoms: _261  and  _262
REMARK  107  A    between atoms: _262  and  _263
REMARK  108  A    between atoms: _263  and  _264
REMARK  109  A    between atoms: _268  and  _270
REMARK  110  A    between atoms: _270  and  _271
REMARK  111  A    between atoms: _270  and  _273
REMARK  112  A    between atoms: _273  and  _274
REMARK  113  A    between atoms: _280  and  _282
REMARK  114  A    between atoms: _282  and  _283
REMARK  115  A    between atoms: _282  and  _285
REMARK  116  A    between atoms: _285  and  _286
REMARK  117  A    between atoms: _292  and  _294
REMARK  118  A    between atoms: _294  and  _295
REMARK  119  A    between atoms: _294  and  _297
REMARK  120  A    between atoms: _297  and  _298
REMARK  121  A    between atoms: _301  and  _303
REMARK  122  A    between atoms: _303  and  _304
REMARK  123  A    between atoms: _303  and  _306
REMARK  124  A    between atoms: _306  and  _307
REMARK  125  A    between atoms: _309  and  _311
REMARK  126  A    between atoms: _311  and  _312
REMARK  127  A    between atoms: _311  and  _314
REMARK  128  A    between atoms: _314  and  _315
REMARK  129  A    between atoms: _325  and  _327
REMARK  130  A    between atoms: _327  and  _328
REMARK  131  A    between atoms: _330  and  _332
REMARK  132  A    between atoms: _332  and  _333
REMARK  133  A    between atoms: _332  and  _335
REMARK  134  A    between atoms: _335  and  _336
REMARK  135  A    between atoms: _339  and  _341
REMARK  136  A    between atoms: _341  and  _342
REMARK  137  A    between atoms: _341  and  _344
REMARK  138  A    between atoms: _344  and  _345
REMARK  139  A    between atoms: _348  and  _350
REMARK  140  A    between atoms: _350  and  _351
REMARK  141  A    between atoms: _353  and  _355
REMARK  142  A    between atoms: _355  and  _356
REMARK  143  A    between atoms: _355  and  _358
REMARK  144  A    between atoms: _358  and  _359
REMARK  145  A    between atoms: _362  and  _364
REMARK  146  A    between atoms: _364  and  _365
REMARK  147  A    between atoms: _364  and  _367
REMARK  148  A    between atoms: _367  and  _368
REMARK  149  A    between atoms: _371  and  _373
REMARK  150  A    between atoms: _373  and  _374
REMARK  151  A    between atoms: _377  and  _379
REMARK  152  A    between atoms: _379  and  _380
REMARK  153  A    between atoms: _379  and  _382
REMARK  154  A    between atoms: _382  and  _383
REMARK  155  A    between atoms: _383  and  _384
REMARK  156  A    between atoms: _384  and  _385
REMARK  157  A    between atoms: _395  and  _396
REMARK  158  A    between atoms: _401  and  _403
REMARK  159  A    between atoms: _403  and  _404
REMARK  160  A    between atoms: _403  and  _406
REMARK  161  A    between atoms: _406  and  _407
REMARK  162  A    between atoms: _410  and  _412
REMARK  163  A    between atoms: _412  and  _413
REMARK  164  A    between atoms: _412  and  _415
REMARK  165  A    between atoms: _415  and  _416
REMARK  166  A    between atoms: _421  and  _422
REMARK  167  A    between atoms: _424  and  _426
REMARK  168  A    between atoms: _426  and  _427
REMARK  169  A    between atoms: _426  and  _429
REMARK  170  A    between atoms: _429  and  _430
REMARK  171  A    between atoms: _433  and  _435
REMARK  172  A    between atoms: _435  and  _436
REMARK  173  A    between atoms: _435  and  _438
REMARK  174  A    between atoms: _441  and  _443
REMARK  175  A    between atoms: _443  and  _444
REMARK  176  A    between atoms: _443  and  _446
REMARK  177  A    between atoms: _446  and  _447
REMARK  178  A    between atoms: _450  and  _452
REMARK  179  A    between atoms: _452  and  _453
REMARK  180  A    between atoms: _452  and  _455
REMARK  181  A    between atoms: _455  and  _456
REMARK  182  A    between atoms: _458  and  _460
REMARK  183  A    between atoms: _460  and  _461
REMARK  184  A    between atoms: _463  and  _465
REMARK  185  A    between atoms: _465  and  _466
REMARK  186  A    between atoms: _465  and  _468
REMARK  187  A    between atoms: _468  and  _469
REMARK  188  A    between atoms: _472  and  _474
REMARK  189  A    between atoms: _474  and  _475
REMARK  190  A    between atoms: _474  and  _477
REMARK  191  A    between atoms: _477  and  _478
REMARK  192  A    between atoms: _481  and  _483
REMARK  193  A    between atoms: _483  and  _484
REMARK  194  A    between atoms: _483  and  _486
REMARK  195  A    between atoms: _486  and  _487
REMARK  196  A    between atoms: _492  and  _494
REMARK  197  A    between atoms: _494  and  _495
REMARK  198  A    between atoms: _494  and  _497
REMARK  199  A    between atoms: _497  and  _498
REMARK  200  A    between atoms: _498  and  _499
REMARK  201  A    between atoms: _499  and  _500
REMARK  202  A    between atoms: _509  and  _511
REMARK  203  A    between atoms: _511  and  _512
REMARK  204  A    between atoms: _511  and  _514
REMARK  205  A    between atoms: _514  and  _515
REMARK  206  A    between atoms: _518  and  _520
REMARK  207  A    between atoms: _520  and  _521
REMARK  208  A    between atoms: _520  and  _523
REMARK  209  A    between atoms: _526  and  _528
REMARK  210  A    between atoms: _528  and  _529
REMARK  211  A    between atoms: _531  and  _533
REMARK  212  A    between atoms: _533  and  _534
REMARK  213  A    between atoms: _537  and  _539
REMARK  214  A    between atoms: _539  and  _540
REMARK  215  A    between atoms: _539  and  _542
REMARK                            x       y       z     vdW  Elec       q    Type
REMARK                         _______ _______ _______ _____ _____    ______ ____
ROOT
ATOM      1  O   HOH     1      29.810  15.170  18.747  0.00  0.00    +0.000 OA
ENDROOT
TORSDOF 0
REMARK  Name = ../refined-set-2016/4h3j/4h3j_pocket.pdb
REMARK  215 active torsions:
REMARK  status: ('A' for Active; 'I' for Inactive)
REMARK    1  A    between atoms: _1  and  _3
REMARK    2  A    between atoms: _3  and  _4
REMARK    3  A    between atoms: _3  and  _6
REMARK    4  A    between atoms: _6  and  _7
REMARK    5  A    between atoms: _7  and  _8
REMARK    6  A    between atoms: _8  and  _9
REMARK    7  A    between atoms: _9  and  _10
REMARK    8  A    between atoms: _14  and  _16
REMARK    9  A    between atoms: _16  and  _17
REMARK   10  A    between atoms: _16  and  _19
REMARK   11  A    between atoms: _19  and  _20
REMARK   12  A    between atoms: _22  and  _24
REMARK   13  A    between atoms: _24  and  _25
REMARK   14  A    between atoms: _27  and  _29
REMARK   15  A    between atoms: _29  and  _30
REMARK   16  A    between atoms: _29  and  _32
REMARK   17  A    between atoms: _32  and  _33
REMARK   18  A    between atoms: _33  and  _34
REMARK   19  A    between atoms: _39  and  _41
REMARK   20  A    between atoms: _41  and  _42
REMARK   21  A    between atoms: _44  and  _46
REMARK   22  A    between atoms: _46  and  _47
REMARK   23  A    between atoms: _46  and  _49
REMARK   24  A    between atoms: _49  and  _50
REMARK   25  A    between atoms: _55  and  _56
REMARK   26  A    between atoms: _58  and  _60
REMARK   27  A    between atoms: _60  and  _61
REMARK   28  A    between atoms: _60  and  _63
REMARK   29  A    between atoms: _63  and  _64
REMARK   30  A    between atoms: _67  and  _69
REMARK   31  A    between atoms: _69  and  _70
REMARK   32  A    between atoms: _69  and  _72
REMARK   33  A    between atoms: _75  and  _77
REMARK   34  A    between atoms: _77  and  _78
REMARK   35  A    between atoms: _77  and  _80
REMARK   36  A    between atoms: _80  and  _81
REMARK   37  A    between atoms: _84  and  _86
REMARK   38  A    between atoms: _86  and  _87
REMARK   39  A    between atoms: _86  and  _89
REMARK   40  A    between atoms: _89  and  _90
REMARK   41  A    between atoms: _93  and  _95
REMARK   42  A    between atoms: _95  and  _96
REMARK   43  A    between atoms: _98  and  _100
REMARK   44  A    between atoms: _100  and  _101
REMARK   45  A    between atoms: _100  and  _103
REMARK   46  A    between atoms: _103  and  _104
REMARK   47  A    between atoms: _106  and  _108
REMARK   48  A    between atoms: _108  and  _109
REMARK   49  A    between atoms: _108  and  _111
REMARK   50  A    between atoms: _111  and  _112
REMARK   51  A    between atoms: _114  and  _116
REMARK   52  A    between atoms: _116  and  _117
REMARK   53  A    between atoms: _116  and  _119
REMARK   54  A    between atoms: _119  and  _120
REMARK   55  A    between atoms: _125  and  _127
REMARK   56  A    between atoms: _127  and  _128
REMARK   57  A    between atoms: _127  and  _130
REMARK   58  A    between atoms: _130  and  _131
REMARK   59  A    between atoms: _137  and  _139
REMARK   60  A    between atoms: _139  and  _140
REMARK   61  A    between atoms: _143  and  _145
REMARK   62  A    between atoms: _145  and  _146
REMARK   63  A    between atoms: _145  and  _148
REMARK   64  A    between atoms: _151  and  _153
REMARK   65  A    between atoms: _153  and  _154
REMARK   66  A    between atoms: _153  and  _156
REMARK   67  A    between atoms: _156  and  _157
REMARK   68  A    between atoms: _162  and  _163
REMARK   69  A    between atoms: _165  and  _167
REMARK   70  A    between atoms: _167  and  _168
REMARK   71  A    between atoms: _167  and  _170
REMARK   72  A    between atoms: _174  and  _175
REMARK   73  A    between atoms: _180  and  _182
REMARK   74  A    between atoms: _182  and  _183
REMARK   75  A    between atoms: _182  and  _185
REMARK   76  A    between atoms: _185  and  _186
REMARK   77  A    between atoms: _191  and  _192
REMARK   78  A    between atoms: _194  and  _196
REMARK   79  A    between atoms: _196  and  _197
REMARK   80  A    between atoms: _196  and  _199
REMARK   81  A    between atoms: _199  and  _200
REMARK   82  A    between atoms: _203  and  _205
REMARK   83  A    between atoms: _205  and  _206
REMARK   84  A    between atoms: _205  and  _208
REMARK   85  A    between atoms: _208  and  _209
REMARK   86  A    between atoms: _209  and  _210
REMARK   87  A    between atoms: _215  and  _217
REMARK   88  A    between atoms: _217  and  _218
REMARK   89  A    between atoms: _220  and  _222
REMARK   90  A    between atoms: _222  and  _223
REMARK   91  A    between atoms: _222  and  _225
REMARK   92  A    between atoms: _225  and  _226
REMARK   93  A    between atoms: _226  and  _227
REMARK   94  A    between atoms: _227  and  _228
REMARK   95  A    between atoms: _228  and  _229
REMARK   96  A    between atoms: _233  and  _235
REMARK   97  A    between atoms: _235  and  _236
REMARK   98  A    between atoms: _235  and  _238
REMARK   99  A    between atoms: _238  and  _239
REMARK  100  A    between atoms: _249  and  _251
REMARK  101  A    between atoms: _251  and  _252
REMARK  102  A    between atoms: _255  and  _257
REMARK  103  A    between atoms: _257  and  _258
REMARK  104  A    between atoms: _257  and  _260
REMARK  105  A    between atoms: _260  and  _261
REMARK  106  A    between atoms: _261  and  _262
REMARK  107  A    between atoms: _262  and  _263
REMARK  108  A    between atoms: _263  and  _264
REMARK  109  A    between atoms: _268  and  _270
REMARK  110  A    between atoms: _270  and  _271
REMARK  111  A    between atoms: _270  and  _273
REMARK  112  A    between atoms: _273  and  _274
REMARK  113  A    between atoms: _280  and  _282
REMARK  114  A    between atoms: _282  and  _283
REMARK  115  A    between atoms: _282  and  _285
REMARK  116  A    between atoms: _285  and  _286
REMARK  117  A    between atoms: _292  and  _294
REMARK  118  A    between atoms: _294  and  _295
REMARK  119  A    between atoms: _294  and  _297
REMARK  120  A    between atoms: _297  and  _298
REMARK  121  A    between atoms: _301  and  _303
REMARK  122  A    between atoms: _303  and  _304
REMARK  123  A    between atoms: _303  and  _306
REMARK  124  A    between atoms: _306  and  _307
REMARK  125  A    between atoms: _309  and  _311
REMARK  126  A    between atoms: _311  and  _312
REMARK  127  A    between atoms: _311  and  _314
REMARK  128  A    between atoms: _314  and  _315
REMARK  129  A    between atoms: _325  and  _327
REMARK  130  A    between atoms: _327  and  _328
REMARK  131  A    between atoms: _330  and  _332
REMARK  132  A    between atoms: _332  and  _333
REMARK  133  A    between atoms: _332  and  _335
REMARK  134  A    between atoms: _335  and  _336
REMARK  135  A    between atoms: _339  and  _341
REMARK  136  A    between atoms: _341  and  _342
REMARK  137  A    between atoms: _341  and  _344
REMARK  138  A    between atoms: _344  and  _345
REMARK  139  A    between atoms: _348  and  _350
REMARK  140  A    between atoms: _350  and  _351
REMARK  141  A    between atoms: _353  and  _355
REMARK  142  A    between atoms: _355  and  _356
REMARK  143  A    between atoms: _355  and  _358
REMARK  144  A    between atoms: _358  and  _359
REMARK  145  A    between atoms: _362  and  _364
REMARK  146  A    between atoms: _364  and  _365
REMARK  147  A    between atoms: _364  and  _367
REMARK  148  A    between atoms: _367  and  _368
REMARK  149  A    between atoms: _371  and  _373
REMARK  150  A    between atoms: _373  and  _374
REMARK  151  A    between atoms: _377  and  _379
REMARK  152  A    between atoms: _379  and  _380
REMARK  153  A    between atoms: _379  and  _382
REMARK  154  A    between atoms: _382  and  _383
REMARK  155  A    between atoms: _383  and  _384
REMARK  156  A    between atoms: _384  and  _385
REMARK  157  A    between atoms: _395  and  _396
REMARK  158  A    between atoms: _401  and  _403
REMARK  159  A    between atoms: _403  and  _404
REMARK  160  A    between atoms: _403  and  _406
REMARK  161  A    between atoms: _406  and  _407
REMARK  162  A    between atoms: _410  and  _412
REMARK  163  A    between atoms: _412  and  _413
REMARK  164  A    between atoms: _412  and  _415
REMARK  165  A    between atoms: _415  and  _416
REMARK  166  A    between atoms: _421  and  _422
REMARK  167  A    between atoms: _424  and  _426
REMARK  168  A    between atoms: _426  and  _427
REMARK  169  A    between atoms: _426  and  _429
REMARK  170  A    between atoms: _429  and  _430
REMARK  171  A    between atoms: _433  and  _435
REMARK  172  A    between atoms: _435  and  _436
REMARK  173  A    between atoms: _435  and  _438
REMARK  174  A    between atoms: _441  and  _443
REMARK  175  A    between atoms: _443  and  _444
REMARK  176  A    between atoms: _443  and  _446
REMARK  177  A    between atoms: _446  and  _447
REMARK  178  A    between atoms: _450  and  _452
REMARK  179  A    between atoms: _452  and  _453
REMARK  180  A    between atoms: _452  and  _455
REMARK  181  A    between atoms: _455  and  _456
REMARK  182  A    between atoms: _458  and  _460
REMARK  183  A    between atoms: _460  and  _461
REMARK  184  A    between atoms: _463  and  _465
REMARK  185  A    between atoms: _465  and  _466
REMARK  186  A    between atoms: _465  and  _468
REMARK  187  A    between atoms: _468  and  _469
REMARK  188  A    between atoms: _472  and  _474
REMARK  189  A    between atoms: _474  and  _475
REMARK  190  A    between atoms: _474  and  _477
REMARK  191  A    between atoms: _477  and  _478
REMARK  192  A    between atoms: _481  and  _483
REMARK  193  A    between atoms: _483  and  _484
REMARK  194  A    between atoms: _483  and  _486
REMARK  195  A    between atoms: _486  and  _487
REMARK  196  A    between atoms: _492  and  _494
REMARK  197  A    between atoms: _494  and  _495
REMARK  198  A    between atoms: _494  and  _497
REMARK  199  A    between atoms: _497  and  _498
REMARK  200  A    between atoms: _498  and  _499
REMARK  201  A    between atoms: _499  and  _500
REMARK  202  A    between atoms: _509  and  _511
REMARK  203  A    between atoms: _511  and  _512
REMARK  204  A    between atoms: _511  and  _514
REMARK  205  A    between atoms: _514  and  _515
REMARK  206  A    between atoms: _518  and  _520
REMARK  207  A    between atoms: _520  and  _521
REMARK  208  A    between atoms: _520  and  _523
REMARK  209  A    between atoms: _526  and  _528
REMARK  210  A    between atoms: _528  and  _529
REMARK  211  A    between atoms: _531  and  _533
REMARK  212  A    between atoms: _533  and  _534
REMARK  213  A    between atoms: _537  and  _539
REMARK  214  A    between atoms: _539  and  _540
REMARK  215  A    between atoms: _539  and  _542
REMARK                            x       y       z     vdW  Elec       q    Type
REMARK                         _______ _______ _______ _____ _____    ______ ____
ROOT
ATOM      1  O   HOH     1      27.238  14.837  18.689  0.00  0.00    +0.000 OA
ENDROOT
TORSDOF 0
REMARK  Name = ../refined-set-2016/4h3j/4h3j_pocket.pdb
REMARK  215 active torsions:
REMARK  status: ('A' for Active; 'I' for Inactive)
REMARK    1  A    between atoms: _1  and  _3
REMARK    2  A    between atoms: _3  and  _4
REMARK    3  A    between atoms: _3  and  _6
REMARK    4  A    between atoms: _6  and  _7
REMARK    5  A    between atoms: _7  and  _8
REMARK    6  A    between atoms: _8  and  _9
REMARK    7  A    between atoms: _9  and  _10
REMARK    8  A    between atoms: _14  and  _16
REMARK    9  A    between atoms: _16  and  _17
REMARK   10  A    between atoms: _16  and  _19
REMARK   11  A    between atoms: _19  and  _20
REMARK   12  A    between atoms: _22  and  _24
REMARK   13  A    between atoms: _24  and  _25
REMARK   14  A    between atoms: _27  and  _29
REMARK   15  A    between atoms: _29  and  _30
REMARK   16  A    between atoms: _29  and  _32
REMARK   17  A    between atoms: _32  and  _33
REMARK   18  A    between atoms: _33  and  _34
REMARK   19  A    between atoms: _39  and  _41
REMARK   20  A    between atoms: _41  and  _42
REMARK   21  A    between atoms: _44  and  _46
REMARK   22  A    between atoms: _46  and  _47
REMARK   23  A    between atoms: _46  and  _49
REMARK   24  A    between atoms: _49  and  _50
REMARK   25  A    between atoms: _55  and  _56
REMARK   26  A    between atoms: _58  and  _60
REMARK   27  A    between atoms: _60  and  _61
REMARK   28  A    between atoms: _60  and  _63
REMARK   29  A    between atoms: _63  and  _64
REMARK   30  A    between atoms: _67  and  _69
REMARK   31  A    between atoms: _69  and  _70
REMARK   32  A    between atoms: _69  and  _72
REMARK   33  A    between atoms: _75  and  _77
REMARK   34  A    between atoms: _77  and  _78
REMARK   35  A    between atoms: _77  and  _80
REMARK   36  A    between atoms: _80  and  _81
REMARK   37  A    between atoms: _84  and  _86
REMARK   38  A    between atoms: _86  and  _87
REMARK   39  A    between atoms: _86  and  _89
REMARK   40  A    between atoms: _89  and  _90
REMARK   41  A    between atoms: _93  and  _95
REMARK   42  A    between atoms: _95  and  _96
REMARK   43  A    between atoms: _98  and  _100
REMARK   44  A    between atoms: _100  and  _101
REMARK   45  A    between atoms: _100  and  _103
REMARK   46  A    between atoms: _103  and  _104
REMARK   47  A    between atoms: _106  and  _108
REMARK   48  A    between atoms: _108  and  _109
REMARK   49  A    between atoms: _108  and  _111
REMARK   50  A    between atoms: _111  and  _112
REMARK   51  A    between atoms: _114  and  _116
REMARK   52  A    between atoms: _116  and  _117
REMARK   53  A    between atoms: _116  and  _119
REMARK   54  A    between atoms: _119  and  _120
REMARK   55  A    between atoms: _125  and  _127
REMARK   56  A    between atoms: _127  and  _128
REMARK   57  A    between atoms: _127  and  _130
REMARK   58  A    between atoms: _130  and  _131
REMARK   59  A    between atoms: _137  and  _139
REMARK   60  A    between atoms: _139  and  _140
REMARK   61  A    between atoms: _143  and  _145
REMARK   62  A    between atoms: _145  and  _146
REMARK   63  A    between atoms: _145  and  _148
REMARK   64  A    between atoms: _151  and  _153
REMARK   65  A    between atoms: _153  and  _154
REMARK   66  A    between atoms: _153  and  _156
REMARK   67  A    between atoms: _156  and  _157
REMARK   68  A    between atoms: _162  and  _163
REMARK   69  A    between atoms: _165  and  _167
REMARK   70  A    between atoms: _167  and  _168
REMARK   71  A    between atoms: _167  and  _170
REMARK   72  A    between atoms: _174  and  _175
REMARK   73  A    between atoms: _180  and  _182
REMARK   74  A    between atoms: _182  and  _183
REMARK   75  A    between atoms: _182  and  _185
REMARK   76  A    between atoms: _185  and  _186
REMARK   77  A    between atoms: _191  and  _192
REMARK   78  A    between atoms: _194  and  _196
REMARK   79  A    between atoms: _196  and  _197
REMARK   80  A    between atoms: _196  and  _199
REMARK   81  A    between atoms: _199  and  _200
REMARK   82  A    between atoms: _203  and  _205
REMARK   83  A    between atoms: _205  and  _206
REMARK   84  A    between atoms: _205  and  _208
REMARK   85  A    between atoms: _208  and  _209
REMARK   86  A    between atoms: _209  and  _210
REMARK   87  A    between atoms: _215  and  _217
REMARK   88  A    between atoms: _217  and  _218
REMARK   89  A    between atoms: _220  and  _222
REMARK   90  A    between atoms: _222  and  _223
REMARK   91  A    between atoms: _222  and  _225
REMARK   92  A    between atoms: _225  and  _226
REMARK   93  A    between atoms: _226  and  _227
REMARK   94  A    between atoms: _227  and  _228
REMARK   95  A    between atoms: _228  and  _229
REMARK   96  A    between atoms: _233  and  _235
REMARK   97  A    between atoms: _235  and  _236
REMARK   98  A    between atoms: _235  and  _238
REMARK   99  A    between atoms: _238  and  _239
REMARK  100  A    between atoms: _249  and  _251
REMARK  101  A    between atoms: _251  and  _252
REMARK  102  A    between atoms: _255  and  _257
REMARK  103  A    between atoms: _257  and  _258
REMARK  104  A    between atoms: _257  and  _260
REMARK  105  A    between atoms: _260  and  _261
REMARK  106  A    between atoms: _261  and  _262
REMARK  107  A    between atoms: _262  and  _263
REMARK  108  A    between atoms: _263  and  _264
REMARK  109  A    between atoms: _268  and  _270
REMARK  110  A    between atoms: _270  and  _271
REMARK  111  A    between atoms: _270  and  _273
REMARK  112  A    between atoms: _273  and  _274
REMARK  113  A    between atoms: _280  and  _282
REMARK  114  A    between atoms: _282  and  _283
REMARK  115  A    between atoms: _282  and  _285
REMARK  116  A    between atoms: _285  and  _286
REMARK  117  A    between atoms: _292  and  _294
REMARK  118  A    between atoms: _294  and  _295
REMARK  119  A    between atoms: _294  and  _297
REMARK  120  A    between atoms: _297  and  _298
REMARK  121  A    between atoms: _301  and  _303
REMARK  122  A    between atoms: _303  and  _304
REMARK  123  A    between atoms: _303  and  _306
REMARK  124  A    between atoms: _306  and  _307
REMARK  125  A    between atoms: _309  and  _311
REMARK  126  A    between atoms: _311  and  _312
REMARK  127  A    between atoms: _311  and  _314
REMARK  128  A    between atoms: _314  and  _315
REMARK  129  A    between atoms: _325  and  _327
REMARK  130  A    between atoms: _327  and  _328
REMARK  131  A    between atoms: _330  and  _332
REMARK  132  A    between atoms: _332  and  _333
REMARK  133  A    between atoms: _332  and  _335
REMARK  134  A    between atoms: _335  and  _336
REMARK  135  A    between atoms: _339  and  _341
REMARK  136  A    between atoms: _341  and  _342
REMARK  137  A    between atoms: _341  and  _344
REMARK  138  A    between atoms: _344  and  _345
REMARK  139  A    between atoms: _348  and  _350
REMARK  140  A    between atoms: _350  and  _351
REMARK  141  A    between atoms: _353  and  _355
REMARK  142  A    between atoms: _355  and  _356
REMARK  143  A    between atoms: _355  and  _358
REMARK  144  A    between atoms: _358  and  _359
REMARK  145  A    between atoms: _362  and  _364
REMARK  146  A    between atoms: _364  and  _365
REMARK  147  A    between atoms: _364  and  _367
REMARK  148  A    between atoms: _367  and  _368
REMARK  149  A    between atoms: _371  and  _373
REMARK  150  A    between atoms: _373  and  _374
REMARK  151  A    between atoms: _377  and  _379
REMARK  152  A    between atoms: _379  and  _380
REMARK  153  A    between atoms: _379  and  _382
REMARK  154  A    between atoms: _382  and  _383
REMARK  155  A    between atoms: _383  and  _384
REMARK  156  A    between atoms: _384  and  _385
REMARK  157  A    between atoms: _395  and  _396
REMARK  158  A    between atoms: _401  and  _403
REMARK  159  A    between atoms: _403  and  _404
REMARK  160  A    between atoms: _403  and  _406
REMARK  161  A    between atoms: _406  and  _407
REMARK  162  A    between atoms: _410  and  _412
REMARK  163  A    between atoms: _412  and  _413
REMARK  164  A    between atoms: _412  and  _415
REMARK  165  A    between atoms: _415  and  _416
REMARK  166  A    between atoms: _421  and  _422
REMARK  167  A    between atoms: _424  and  _426
REMARK  168  A    between atoms: _426  and  _427
REMARK  169  A    between atoms: _426  and  _429
REMARK  170  A    between atoms: _429  and  _430
REMARK  171  A    between atoms: _433  and  _435
REMARK  172  A    between atoms: _435  and  _436
REMARK  173  A    between atoms: _435  and  _438
REMARK  174  A    between atoms: _441  and  _443
REMARK  175  A    between atoms: _443  and  _444
REMARK  176  A    between atoms: _443  and  _446
REMARK  177  A    between atoms: _446  and  _447
REMARK  178  A    between atoms: _450  and  _452
REMARK  179  A    between atoms: _452  and  _453
REMARK  180  A    between atoms: _452  and  _455
REMARK  181  A    between atoms: _455  and  _456
REMARK  182  A    between atoms: _458  and  _460
REMARK  183  A    between atoms: _460  and  _461
REMARK  184  A    between atoms: _463  and  _465
REMARK  185  A    between atoms: _465  and  _466
REMARK  186  A    between atoms: _465  and  _468
REMARK  187  A    between atoms: _468  and  _469
REMARK  188  A    between atoms: _472  and  _474
REMARK  189  A    between atoms: _474  and  _475
REMARK  190  A    between atoms: _474  and  _477
REMARK  191  A    between atoms: _477  and  _478
REMARK  192  A    between atoms: _481  and  _483
REMARK  193  A    between atoms: _483  and  _484
REMARK  194  A    between atoms: _483  and  _486
REMARK  195  A    between atoms: _486  and  _487
REMARK  196  A    between atoms: _492  and  _494
REMARK  197  A    between atoms: _494  and  _495
REMARK  198  A    between atoms: _494  and  _497
REMARK  199  A    between atoms: _497  and  _498
REMARK  200  A    between atoms: _498  and  _499
REMARK  201  A    between atoms: _499  and  _500
REMARK  202  A    between atoms: _509  and  _511
REMARK  203  A    between atoms: _511  and  _512
REMARK  204  A    between atoms: _511  and  _514
REMARK  205  A    between atoms: _514  and  _515
REMARK  206  A    between atoms: _518  and  _520
REMARK  207  A    between atoms: _520  and  _521
REMARK  208  A    between atoms: _520  and  _523
REMARK  209  A    between atoms: _526  and  _528
REMARK  210  A    between atoms: _528  and  _529
REMARK  211  A    between atoms: _531  and  _533
REMARK  212  A    between atoms: _533  and  _534
REMARK  213  A    between atoms: _537  and  _539
REMARK  214  A    between atoms: _539  and  _540
REMARK  215  A    between atoms: _539  and  _542
REMARK                            x       y       z     vdW  Elec       q    Type
REMARK                         _______ _______ _______ _____ _____    ______ ____
ROOT
ATOM      1  O   HOH     1      24.232  14.003  28.020  0.00  0.00    +0.000 OA
ENDROOT
TORSDOF 0
REMARK  Name = ../refined-set-2016/4h3j/4h3j_pocket.pdb
REMARK  215 active torsions:
REMARK  status: ('A' for Active; 'I' for Inactive)
REMARK    1  A    between atoms: _1  and  _3
REMARK    2  A    between atoms: _3  and  _4
REMARK    3  A    between atoms: _3  and  _6
REMARK    4  A    between atoms: _6  and  _7
REMARK    5  A    between atoms: _7  and  _8
REMARK    6  A    between atoms: _8  and  _9
REMARK    7  A    between atoms: _9  and  _10
REMARK    8  A    between atoms: _14  and  _16
REMARK    9  A    between atoms: _16  and  _17
REMARK   10  A    between atoms: _16  and  _19
REMARK   11  A    between atoms: _19  and  _20
REMARK   12  A    between atoms: _22  and  _24
REMARK   13  A    between atoms: _24  and  _25
REMARK   14  A    between atoms: _27  and  _29
REMARK   15  A    between atoms: _29  and  _30
REMARK   16  A    between atoms: _29  and  _32
REMARK   17  A    between atoms: _32  and  _33
REMARK   18  A    between atoms: _33  and  _34
REMARK   19  A    between atoms: _39  and  _41
REMARK   20  A    between atoms: _41  and  _42
REMARK   21  A    between atoms: _44  and  _46
REMARK   22  A    between atoms: _46  and  _47
REMARK   23  A    between atoms: _46  and  _49
REMARK   24  A    between atoms: _49  and  _50
REMARK   25  A    between atoms: _55  and  _56
REMARK   26  A    between atoms: _58  and  _60
REMARK   27  A    between atoms: _60  and  _61
REMARK   28  A    between atoms: _60  and  _63
REMARK   29  A    between atoms: _63  and  _64
REMARK   30  A    between atoms: _67  and  _69
REMARK   31  A    between atoms: _69  and  _70
REMARK   32  A    between atoms: _69  and  _72
REMARK   33  A    between atoms: _75  and  _77
REMARK   34  A    between atoms: _77  and  _78
REMARK   35  A    between atoms: _77  and  _80
REMARK   36  A    between atoms: _80  and  _81
REMARK   37  A    between atoms: _84  and  _86
REMARK   38  A    between atoms: _86  and  _87
REMARK   39  A    between atoms: _86  and  _89
REMARK   40  A    between atoms: _89  and  _90
REMARK   41  A    between atoms: _93  and  _95
REMARK   42  A    between atoms: _95  and  _96
REMARK   43  A    between atoms: _98  and  _100
REMARK   44  A    between atoms: _100  and  _101
REMARK   45  A    between atoms: _100  and  _103
REMARK   46  A    between atoms: _103  and  _104
REMARK   47  A    between atoms: _106  and  _108
REMARK   48  A    between atoms: _108  and  _109
REMARK   49  A    between atoms: _108  and  _111
REMARK   50  A    between atoms: _111  and  _112
REMARK   51  A    between atoms: _114  and  _116
REMARK   52  A    between atoms: _116  and  _117
REMARK   53  A    between atoms: _116  and  _119
REMARK   54  A    between atoms: _119  and  _120
REMARK   55  A    between atoms: _125  and  _127
REMARK   56  A    between atoms: _127  and  _128
REMARK   57  A    between atoms: _127  and  _130
REMARK   58  A    between atoms: _130  and  _131
REMARK   59  A    between atoms: _137  and  _139
REMARK   60  A    between atoms: _139  and  _140
REMARK   61  A    between atoms: _143  and  _145
REMARK   62  A    between atoms: _145  and  _146
REMARK   63  A    between atoms: _145  and  _148
REMARK   64  A    between atoms: _151  and  _153
REMARK   65  A    between atoms: _153  and  _154
REMARK   66  A    between atoms: _153  and  _156
REMARK   67  A    between atoms: _156  and  _157
REMARK   68  A    between atoms: _162  and  _163
REMARK   69  A    between atoms: _165  and  _167
REMARK   70  A    between atoms: _167  and  _168
REMARK   71  A    between atoms: _167  and  _170
REMARK   72  A    between atoms: _174  and  _175
REMARK   73  A    between atoms: _180  and  _182
REMARK   74  A    between atoms: _182  and  _183
REMARK   75  A    between atoms: _182  and  _185
REMARK   76  A    between atoms: _185  and  _186
REMARK   77  A    between atoms: _191  and  _192
REMARK   78  A    between atoms: _194  and  _196
REMARK   79  A    between atoms: _196  and  _197
REMARK   80  A    between atoms: _196  and  _199
REMARK   81  A    between atoms: _199  and  _200
REMARK   82  A    between atoms: _203  and  _205
REMARK   83  A    between atoms: _205  and  _206
REMARK   84  A    between atoms: _205  and  _208
REMARK   85  A    between atoms: _208  and  _209
REMARK   86  A    between atoms: _209  and  _210
REMARK   87  A    between atoms: _215  and  _217
REMARK   88  A    between atoms: _217  and  _218
REMARK   89  A    between atoms: _220  and  _222
REMARK   90  A    between atoms: _222  and  _223
REMARK   91  A    between atoms: _222  and  _225
REMARK   92  A    between atoms: _225  and  _226
REMARK   93  A    between atoms: _226  and  _227
REMARK   94  A    between atoms: _227  and  _228
REMARK   95  A    between atoms: _228  and  _229
REMARK   96  A    between atoms: _233  and  _235
REMARK   97  A    between atoms: _235  and  _236
REMARK   98  A    between atoms: _235  and  _238
REMARK   99  A    between atoms: _238  and  _239
REMARK  100  A    between atoms: _249  and  _251
REMARK  101  A    between atoms: _251  and  _252
REMARK  102  A    between atoms: _255  and  _257
REMARK  103  A    between atoms: _257  and  _258
REMARK  104  A    between atoms: _257  and  _260
REMARK  105  A    between atoms: _260  and  _261
REMARK  106  A    between atoms: _261  and  _262
REMARK  107  A    between atoms: _262  and  _263
REMARK  108  A    between atoms: _263  and  _264
REMARK  109  A    between atoms: _268  and  _270
REMARK  110  A    between atoms: _270  and  _271
REMARK  111  A    between atoms: _270  and  _273
REMARK  112  A    between atoms: _273  and  _274
REMARK  113  A    between atoms: _280  and  _282
REMARK  114  A    between atoms: _282  and  _283
REMARK  115  A    between atoms: _282  and  _285
REMARK  116  A    between atoms: _285  and  _286
REMARK  117  A    between atoms: _292  and  _294
REMARK  118  A    between atoms: _294  and  _295
REMARK  119  A    between atoms: _294  and  _297
REMARK  120  A    between atoms: _297  and  _298
REMARK  121  A    between atoms: _301  and  _303
REMARK  122  A    between atoms: _303  and  _304
REMARK  123  A    between atoms: _303  and  _306
REMARK  124  A    between atoms: _306  and  _307
REMARK  125  A    between atoms: _309  and  _311
REMARK  126  A    between atoms: _311  and  _312
REMARK  127  A    between atoms: _311  and  _314
REMARK  128  A    between atoms: _314  and  _315
REMARK  129  A    between atoms: _325  and  _327
REMARK  130  A    between atoms: _327  and  _328
REMARK  131  A    between atoms: _330  and  _332
REMARK  132  A    between atoms: _332  and  _333
REMARK  133  A    between atoms: _332  and  _335
REMARK  134  A    between atoms: _335  and  _336
REMARK  135  A    between atoms: _339  and  _341
REMARK  136  A    between atoms: _341  and  _342
REMARK  137  A    between atoms: _341  and  _344
REMARK  138  A    between atoms: _344  and  _345
REMARK  139  A    between atoms: _348  and  _350
REMARK  140  A    between atoms: _350  and  _351
REMARK  141  A    between atoms: _353  and  _355
REMARK  142  A    between atoms: _355  and  _356
REMARK  143  A    between atoms: _355  and  _358
REMARK  144  A    between atoms: _358  and  _359
REMARK  145  A    between atoms: _362  and  _364
REMARK  146  A    between atoms: _364  and  _365
REMARK  147  A    between atoms: _364  and  _367
REMARK  148  A    between atoms: _367  and  _368
REMARK  149  A    between atoms: _371  and  _373
REMARK  150  A    between atoms: _373  and  _374
REMARK  151  A    between atoms: _377  and  _379
REMARK  152  A    between atoms: _379  and  _380
REMARK  153  A    between atoms: _379  and  _382
REMARK  154  A    between atoms: _382  and  _383
REMARK  155  A    between atoms: _383  and  _384
REMARK  156  A    between atoms: _384  and  _385
REMARK  157  A    between atoms: _395  and  _396
REMARK  158  A    between atoms: _401  and  _403
REMARK  159  A    between atoms: _403  and  _404
REMARK  160  A    between atoms: _403  and  _406
REMARK  161  A    between atoms: _406  and  _407
REMARK  162  A    between atoms: _410  and  _412
REMARK  163  A    between atoms: _412  and  _413
REMARK  164  A    between atoms: _412  and  _415
REMARK  165  A    between atoms: _415  and  _416
REMARK  166  A    between atoms: _421  and  _422
REMARK  167  A    between atoms: _424  and  _426
REMARK  168  A    between atoms: _426  and  _427
REMARK  169  A    between atoms: _426  and  _429
REMARK  170  A    between atoms: _429  and  _430
REMARK  171  A    between atoms: _433  and  _435
REMARK  172  A    between atoms: _435  and  _436
REMARK  173  A    between atoms: _435  and  _438
REMARK  174  A    between atoms: _441  and  _443
REMARK  175  A    between atoms: _443  and  _444
REMARK  176  A    between atoms: _443  and  _446
REMARK  177  A    between atoms: _446  and  _447
REMARK  178  A    between atoms: _450  and  _452
REMARK  179  A    between atoms: _452  and  _453
REMARK  180  A    between atoms: _452  and  _455
REMARK  181  A    between atoms: _455  and  _456
REMARK  182  A    between atoms: _458  and  _460
REMARK  183  A    between atoms: _460  and  _461
REMARK  184  A    between atoms: _463  and  _465
REMARK  185  A    between atoms: _465  and  _466
REMARK  186  A    between atoms: _465  and  _468
REMARK  187  A    between atoms: _468  and  _469
REMARK  188  A    between atoms: _472  and  _474
REMARK  189  A    between atoms: _474  and  _475
REMARK  190  A    between atoms: _474  and  _477
REMARK  191  A    between atoms: _477  and  _478
REMARK  192  A    between atoms: _481  and  _483
REMARK  193  A    between atoms: _483  and  _484
REMARK  194  A    between atoms: _483  and  _486
REMARK  195  A    between atoms: _486  and  _487
REMARK  196  A    between atoms: _492  and  _494
REMARK  197  A    between atoms: _494  and  _495
REMARK  198  A    between atoms: _494  and  _497
REMARK  199  A    between atoms: _497  and  _498
REMARK  200  A    between atoms: _498  and  _499
REMARK  201  A    between atoms: _499  and  _500
REMARK  202  A    between atoms: _509  and  _511
REMARK  203  A    between atoms: _511  and  _512
REMARK  204  A    between atoms: _511  and  _514
REMARK  205  A    between atoms: _514  and  _515
REMARK  206  A    between atoms: _518  and  _520
REMARK  207  A    between atoms: _520  and  _521
REMARK  208  A    between atoms: _520  and  _523
REMARK  209  A    between atoms: _526  and  _528
REMARK  210  A    between atoms: _528  and  _529
REMARK  211  A    between atoms: _531  and  _533
REMARK  212  A    between atoms: _533  and  _534
REMARK  213  A    between atoms: _537  and  _539
REMARK  214  A    between atoms: _539  and  _540
REMARK  215  A    between atoms: _539  and  _542
REMARK                            x       y       z     vdW  Elec       q    Type
REMARK                         _______ _______ _______ _____ _____    ______ ____
ROOT
ATOM      1  O   HOH     1      21.669  13.647  28.595  0.00  0.00    +0.000 OA
ENDROOT
TORSDOF 0
REMARK  Name = ../refined-set-2016/4h3j/4h3j_pocket.pdb
REMARK  215 active torsions:
REMARK  status: ('A' for Active; 'I' for Inactive)
REMARK    1  A    between atoms: _1  and  _3
REMARK    2  A    between atoms: _3  and  _4
REMARK    3  A    between atoms: _3  and  _6
REMARK    4  A    between atoms: _6  and  _7
REMARK    5  A    between atoms: _7  and  _8
REMARK    6  A    between atoms: _8  and  _9
REMARK    7  A    between atoms: _9  and  _10
REMARK    8  A    between atoms: _14  and  _16
REMARK    9  A    between atoms: _16  and  _17
REMARK   10  A    between atoms: _16  and  _19
REMARK   11  A    between atoms: _19  and  _20
REMARK   12  A    between atoms: _22  and  _24
REMARK   13  A    between atoms: _24  and  _25
REMARK   14  A    between atoms: _27  and  _29
REMARK   15  A    between atoms: _29  and  _30
REMARK   16  A    between atoms: _29  and  _32
REMARK   17  A    between atoms: _32  and  _33
REMARK   18  A    between atoms: _33  and  _34
REMARK   19  A    between atoms: _39  and  _41
REMARK   20  A    between atoms: _41  and  _42
REMARK   21  A    between atoms: _44  and  _46
REMARK   22  A    between atoms: _46  and  _47
REMARK   23  A    between atoms: _46  and  _49
REMARK   24  A    between atoms: _49  and  _50
REMARK   25  A    between atoms: _55  and  _56
REMARK   26  A    between atoms: _58  and  _60
REMARK   27  A    between atoms: _60  and  _61
REMARK   28  A    between atoms: _60  and  _63
REMARK   29  A    between atoms: _63  and  _64
REMARK   30  A    between atoms: _67  and  _69
REMARK   31  A    between atoms: _69  and  _70
REMARK   32  A    between atoms: _69  and  _72
REMARK   33  A    between atoms: _75  and  _77
REMARK   34  A    between atoms: _77  and  _78
REMARK   35  A    between atoms: _77  and  _80
REMARK   36  A    between atoms: _80  and  _81
REMARK   37  A    between atoms: _84  and  _86
REMARK   38  A    between atoms: _86  and  _87
REMARK   39  A    between atoms: _86  and  _89
REMARK   40  A    between atoms: _89  and  _90
REMARK   41  A    between atoms: _93  and  _95
REMARK   42  A    between atoms: _95  and  _96
REMARK   43  A    between atoms: _98  and  _100
REMARK   44  A    between atoms: _100  and  _101
REMARK   45  A    between atoms: _100  and  _103
REMARK   46  A    between atoms: _103  and  _104
REMARK   47  A    between atoms: _106  and  _108
REMARK   48  A    between atoms: _108  and  _109
REMARK   49  A    between atoms: _108  and  _111
REMARK   50  A    between atoms: _111  and  _112
REMARK   51  A    between atoms: _114  and  _116
REMARK   52  A    between atoms: _116  and  _117
REMARK   53  A    between atoms: _116  and  _119
REMARK   54  A    between atoms: _119  and  _120
REMARK   55  A    between atoms: _125  and  _127
REMARK   56  A    between atoms: _127  and  _128
REMARK   57  A    between atoms: _127  and  _130
REMARK   58  A    between atoms: _130  and  _131
REMARK   59  A    between atoms: _137  and  _139
REMARK   60  A    between atoms: _139  and  _140
REMARK   61  A    between atoms: _143  and  _145
REMARK   62  A    between atoms: _145  and  _146
REMARK   63  A    between atoms: _145  and  _148
REMARK   64  A    between atoms: _151  and  _153
REMARK   65  A    between atoms: _153  and  _154
REMARK   66  A    between atoms: _153  and  _156
REMARK   67  A    between atoms: _156  and  _157
REMARK   68  A    between atoms: _162  and  _163
REMARK   69  A    between atoms: _165  and  _167
REMARK   70  A    between atoms: _167  and  _168
REMARK   71  A    between atoms: _167  and  _170
REMARK   72  A    between atoms: _174  and  _175
REMARK   73  A    between atoms: _180  and  _182
REMARK   74  A    between atoms: _182  and  _183
REMARK   75  A    between atoms: _182  and  _185
REMARK   76  A    between atoms: _185  and  _186
REMARK   77  A    between atoms: _191  and  _192
REMARK   78  A    between atoms: _194  and  _196
REMARK   79  A    between atoms: _196  and  _197
REMARK   80  A    between atoms: _196  and  _199
REMARK   81  A    between atoms: _199  and  _200
REMARK   82  A    between atoms: _203  and  _205
REMARK   83  A    between atoms: _205  and  _206
REMARK   84  A    between atoms: _205  and  _208
REMARK   85  A    between atoms: _208  and  _209
REMARK   86  A    between atoms: _209  and  _210
REMARK   87  A    between atoms: _215  and  _217
REMARK   88  A    between atoms: _217  and  _218
REMARK   89  A    between atoms: _220  and  _222
REMARK   90  A    between atoms: _222  and  _223
REMARK   91  A    between atoms: _222  and  _225
REMARK   92  A    between atoms: _225  and  _226
REMARK   93  A    between atoms: _226  and  _227
REMARK   94  A    between atoms: _227  and  _228
REMARK   95  A    between atoms: _228  and  _229
REMARK   96  A    between atoms: _233  and  _235
REMARK   97  A    between atoms: _235  and  _236
REMARK   98  A    between atoms: _235  and  _238
REMARK   99  A    between atoms: _238  and  _239
REMARK  100  A    between atoms: _249  and  _251
REMARK  101  A    between atoms: _251  and  _252
REMARK  102  A    between atoms: _255  and  _257
REMARK  103  A    between atoms: _257  and  _258
REMARK  104  A    between atoms: _257  and  _260
REMARK  105  A    between atoms: _260  and  _261
REMARK  106  A    between atoms: _261  and  _262
REMARK  107  A    between atoms: _262  and  _263
REMARK  108  A    between atoms: _263  and  _264
REMARK  109  A    between atoms: _268  and  _270
REMARK  110  A    between atoms: _270  and  _271
REMARK  111  A    between atoms: _270  and  _273
REMARK  112  A    between atoms: _273  and  _274
REMARK  113  A    between atoms: _280  and  _282
REMARK  114  A    between atoms: _282  and  _283
REMARK  115  A    between atoms: _282  and  _285
REMARK  116  A    between atoms: _285  and  _286
REMARK  117  A    between atoms: _292  and  _294
REMARK  118  A    between atoms: _294  and  _295
REMARK  119  A    between atoms: _294  and  _297
REMARK  120  A    between atoms: _297  and  _298
REMARK  121  A    between atoms: _301  and  _303
REMARK  122  A    between atoms: _303  and  _304
REMARK  123  A    between atoms: _303  and  _306
REMARK  124  A    between atoms: _306  and  _307
REMARK  125  A    between atoms: _309  and  _311
REMARK  126  A    between atoms: _311  and  _312
REMARK  127  A    between atoms: _311  and  _314
REMARK  128  A    between atoms: _314  and  _315
REMARK  129  A    between atoms: _325  and  _327
REMARK  130  A    between atoms: _327  and  _328
REMARK  131  A    between atoms: _330  and  _332
REMARK  132  A    between atoms: _332  and  _333
REMARK  133  A    between atoms: _332  and  _335
REMARK  134  A    between atoms: _335  and  _336
REMARK  135  A    between atoms: _339  and  _341
REMARK  136  A    between atoms: _341  and  _342
REMARK  137  A    between atoms: _341  and  _344
REMARK  138  A    between atoms: _344  and  _345
REMARK  139  A    between atoms: _348  and  _350
REMARK  140  A    between atoms: _350  and  _351
REMARK  141  A    between atoms: _353  and  _355
REMARK  142  A    between atoms: _355  and  _356
REMARK  143  A    between atoms: _355  and  _358
REMARK  144  A    between atoms: _358  and  _359
REMARK  145  A    between atoms: _362  and  _364
REMARK  146  A    between atoms: _364  and  _365
REMARK  147  A    between atoms: _364  and  _367
REMARK  148  A    between atoms: _367  and  _368
REMARK  149  A    between atoms: _371  and  _373
REMARK  150  A    between atoms: _373  and  _374
REMARK  151  A    between atoms: _377  and  _379
REMARK  152  A    between atoms: _379  and  _380
REMARK  153  A    between atoms: _379  and  _382
REMARK  154  A    between atoms: _382  and  _383
REMARK  155  A    between atoms: _383  and  _384
REMARK  156  A    between atoms: _384  and  _385
REMARK  157  A    between atoms: _395  and  _396
REMARK  158  A    between atoms: _401  and  _403
REMARK  159  A    between atoms: _403  and  _404
REMARK  160  A    between atoms: _403  and  _406
REMARK  161  A    between atoms: _406  and  _407
REMARK  162  A    between atoms: _410  and  _412
REMARK  163  A    between atoms: _412  and  _413
REMARK  164  A    between atoms: _412  and  _415
REMARK  165  A    between atoms: _415  and  _416
REMARK  166  A    between atoms: _421  and  _422
REMARK  167  A    between atoms: _424  and  _426
REMARK  168  A    between atoms: _426  and  _427
REMARK  169  A    between atoms: _426  and  _429
REMARK  170  A    between atoms: _429  and  _430
REMARK  171  A    between atoms: _433  and  _435
REMARK  172  A    between atoms: _435  and  _436
REMARK  173  A    between atoms: _435  and  _438
REMARK  174  A    between atoms: _441  and  _443
REMARK  175  A    between atoms: _443  and  _444
REMARK  176  A    between atoms: _443  and  _446
REMARK  177  A    between atoms: _446  and  _447
REMARK  178  A    between atoms: _450  and  _452
REMARK  179  A    between atoms: _452  and  _453
REMARK  180  A    between atoms: _452  and  _455
REMARK  181  A    between atoms: _455  and  _456
REMARK  182  A    between atoms: _458  and  _460
REMARK  183  A    between atoms: _460  and  _461
REMARK  184  A    between atoms: _463  and  _465
REMARK  185  A    between atoms: _465  and  _466
REMARK  186  A    between atoms: _465  and  _468
REMARK  187  A    between atoms: _468  and  _469
REMARK  188  A    between atoms: _472  and  _474
REMARK  189  A    between atoms: _474  and  _475
REMARK  190  A    between atoms: _474  and  _477
REMARK  191  A    between atoms: _477  and  _478
REMARK  192  A    between atoms: _481  and  _483
REMARK  193  A    between atoms: _483  and  _484
REMARK  194  A    between atoms: _483  and  _486
REMARK  195  A    between atoms: _486  and  _487
REMARK  196  A    between atoms: _492  and  _494
REMARK  197  A    between atoms: _494  and  _495
REMARK  198  A    between atoms: _494  and  _497
REMARK  199  A    between atoms: _497  and  _498
REMARK  200  A    between atoms: _498  and  _499
REMARK  201  A    between atoms: _499  and  _500
REMARK  202  A    between atoms: _509  and  _511
REMARK  203  A    between atoms: _511  and  _512
REMARK  204  A    between atoms: _511  and  _514
REMARK  205  A    between atoms: _514  and  _515
REMARK  206  A    between atoms: _518  and  _520
REMARK  207  A    between atoms: _520  and  _521
REMARK  208  A    between atoms: _520  and  _523
REMARK  209  A    between atoms: _526  and  _528
REMARK  210  A    between atoms: _528  and  _529
REMARK  211  A    between atoms: _531  and  _533
REMARK  212  A    between atoms: _533  and  _534
REMARK  213  A    between atoms: _537  and  _539
REMARK  214  A    between atoms: _539  and  _540
REMARK  215  A    between atoms: _539  and  _542
REMARK                            x       y       z     vdW  Elec       q    Type
REMARK                         _______ _______ _______ _____ _____    ______ ____
ROOT
ATOM      1  O   HOH     1      24.955  15.086  25.864  0.00  0.00    +0.000 OA
ENDROOT
TORSDOF 0
REMARK  Name = ../refined-set-2016/4h3j/4h3j_pocket.pdb
REMARK  215 active torsions:
REMARK  status: ('A' for Active; 'I' for Inactive)
REMARK    1  A    between atoms: _1  and  _3
REMARK    2  A    between atoms: _3  and  _4
REMARK    3  A    between atoms: _3  and  _6
REMARK    4  A    between atoms: _6  and  _7
REMARK    5  A    between atoms: _7  and  _8
REMARK    6  A    between atoms: _8  and  _9
REMARK    7  A    between atoms: _9  and  _10
REMARK    8  A    between atoms: _14  and  _16
REMARK    9  A    between atoms: _16  and  _17
REMARK   10  A    between atoms: _16  and  _19
REMARK   11  A    between atoms: _19  and  _20
REMARK   12  A    between atoms: _22  and  _24
REMARK   13  A    between atoms: _24  and  _25
REMARK   14  A    between atoms: _27  and  _29
REMARK   15  A    between atoms: _29  and  _30
REMARK   16  A    between atoms: _29  and  _32
REMARK   17  A    between atoms: _32  and  _33
REMARK   18  A    between atoms: _33  and  _34
REMARK   19  A    between atoms: _39  and  _41
REMARK   20  A    between atoms: _41  and  _42
REMARK   21  A    between atoms: _44  and  _46
REMARK   22  A    between atoms: _46  and  _47
REMARK   23  A    between atoms: _46  and  _49
REMARK   24  A    between atoms: _49  and  _50
REMARK   25  A    between atoms: _55  and  _56
REMARK   26  A    between atoms: _58  and  _60
REMARK   27  A    between atoms: _60  and  _61
REMARK   28  A    between atoms: _60  and  _63
REMARK   29  A    between atoms: _63  and  _64
REMARK   30  A    between atoms: _67  and  _69
REMARK   31  A    between atoms: _69  and  _70
REMARK   32  A    between atoms: _69  and  _72
REMARK   33  A    between atoms: _75  and  _77
REMARK   34  A    between atoms: _77  and  _78
REMARK   35  A    between atoms: _77  and  _80
REMARK   36  A    between atoms: _80  and  _81
REMARK   37  A    between atoms: _84  and  _86
REMARK   38  A    between atoms: _86  and  _87
REMARK   39  A    between atoms: _86  and  _89
REMARK   40  A    between atoms: _89  and  _90
REMARK   41  A    between atoms: _93  and  _95
REMARK   42  A    between atoms: _95  and  _96
REMARK   43  A    between atoms: _98  and  _100
REMARK   44  A    between atoms: _100  and  _101
REMARK   45  A    between atoms: _100  and  _103
REMARK   46  A    between atoms: _103  and  _104
REMARK   47  A    between atoms: _106  and  _108
REMARK   48  A    between atoms: _108  and  _109
REMARK   49  A    between atoms: _108  and  _111
REMARK   50  A    between atoms: _111  and  _112
REMARK   51  A    between atoms: _114  and  _116
REMARK   52  A    between atoms: _116  and  _117
REMARK   53  A    between atoms: _116  and  _119
REMARK   54  A    between atoms: _119  and  _120
REMARK   55  A    between atoms: _125  and  _127
REMARK   56  A    between atoms: _127  and  _128
REMARK   57  A    between atoms: _127  and  _130
REMARK   58  A    between atoms: _130  and  _131
REMARK   59  A    between atoms: _137  and  _139
REMARK   60  A    between atoms: _139  and  _140
REMARK   61  A    between atoms: _143  and  _145
REMARK   62  A    between atoms: _145  and  _146
REMARK   63  A    between atoms: _145  and  _148
REMARK   64  A    between atoms: _151  and  _153
REMARK   65  A    between atoms: _153  and  _154
REMARK   66  A    between atoms: _153  and  _156
REMARK   67  A    between atoms: _156  and  _157
REMARK   68  A    between atoms: _162  and  _163
REMARK   69  A    between atoms: _165  and  _167
REMARK   70  A    between atoms: _167  and  _168
REMARK   71  A    between atoms: _167  and  _170
REMARK   72  A    between atoms: _174  and  _175
REMARK   73  A    between atoms: _180  and  _182
REMARK   74  A    between atoms: _182  and  _183
REMARK   75  A    between atoms: _182  and  _185
REMARK   76  A    between atoms: _185  and  _186
REMARK   77  A    between atoms: _191  and  _192
REMARK   78  A    between atoms: _194  and  _196
REMARK   79  A    between atoms: _196  and  _197
REMARK   80  A    between atoms: _196  and  _199
REMARK   81  A    between atoms: _199  and  _200
REMARK   82  A    between atoms: _203  and  _205
REMARK   83  A    between atoms: _205  and  _206
REMARK   84  A    between atoms: _205  and  _208
REMARK   85  A    between atoms: _208  and  _209
REMARK   86  A    between atoms: _209  and  _210
REMARK   87  A    between atoms: _215  and  _217
REMARK   88  A    between atoms: _217  and  _218
REMARK   89  A    between atoms: _220  and  _222
REMARK   90  A    between atoms: _222  and  _223
REMARK   91  A    between atoms: _222  and  _225
REMARK   92  A    between atoms: _225  and  _226
REMARK   93  A    between atoms: _226  and  _227
REMARK   94  A    between atoms: _227  and  _228
REMARK   95  A    between atoms: _228  and  _229
REMARK   96  A    between atoms: _233  and  _235
REMARK   97  A    between atoms: _235  and  _236
REMARK   98  A    between atoms: _235  and  _238
REMARK   99  A    between atoms: _238  and  _239
REMARK  100  A    between atoms: _249  and  _251
REMARK  101  A    between atoms: _251  and  _252
REMARK  102  A    between atoms: _255  and  _257
REMARK  103  A    between atoms: _257  and  _258
REMARK  104  A    between atoms: _257  and  _260
REMARK  105  A    between atoms: _260  and  _261
REMARK  106  A    between atoms: _261  and  _262
REMARK  107  A    between atoms: _262  and  _263
REMARK  108  A    between atoms: _263  and  _264
REMARK  109  A    between atoms: _268  and  _270
REMARK  110  A    between atoms: _270  and  _271
REMARK  111  A    between atoms: _270  and  _273
REMARK  112  A    between atoms: _273  and  _274
REMARK  113  A    between atoms: _280  and  _282
REMARK  114  A    between atoms: _282  and  _283
REMARK  115  A    between atoms: _282  and  _285
REMARK  116  A    between atoms: _285  and  _286
REMARK  117  A    between atoms: _292  and  _294
REMARK  118  A    between atoms: _294  and  _295
REMARK  119  A    between atoms: _294  and  _297
REMARK  120  A    between atoms: _297  and  _298
REMARK  121  A    between atoms: _301  and  _303
REMARK  122  A    between atoms: _303  and  _304
REMARK  123  A    between atoms: _303  and  _306
REMARK  124  A    between atoms: _306  and  _307
REMARK  125  A    between atoms: _309  and  _311
REMARK  126  A    between atoms: _311  and  _312
REMARK  127  A    between atoms: _311  and  _314
REMARK  128  A    between atoms: _314  and  _315
REMARK  129  A    between atoms: _325  and  _327
REMARK  130  A    between atoms: _327  and  _328
REMARK  131  A    between atoms: _330  and  _332
REMARK  132  A    between atoms: _332  and  _333
REMARK  133  A    between atoms: _332  and  _335
REMARK  134  A    between atoms: _335  and  _336
REMARK  135  A    between atoms: _339  and  _341
REMARK  136  A    between atoms: _341  and  _342
REMARK  137  A    between atoms: _341  and  _344
REMARK  138  A    between atoms: _344  and  _345
REMARK  139  A    between atoms: _348  and  _350
REMARK  140  A    between atoms: _350  and  _351
REMARK  141  A    between atoms: _353  and  _355
REMARK  142  A    between atoms: _355  and  _356
REMARK  143  A    between atoms: _355  and  _358
REMARK  144  A    between atoms: _358  and  _359
REMARK  145  A    between atoms: _362  and  _364
REMARK  146  A    between atoms: _364  and  _365
REMARK  147  A    between atoms: _364  and  _367
REMARK  148  A    between atoms: _367  and  _368
REMARK  149  A    between atoms: _371  and  _373
REMARK  150  A    between atoms: _373  and  _374
REMARK  151  A    between atoms: _377  and  _379
REMARK  152  A    between atoms: _379  and  _380
REMARK  153  A    between atoms: _379  and  _382
REMARK  154  A    between atoms: _382  and  _383
REMARK  155  A    between atoms: _383  and  _384
REMARK  156  A    between atoms: _384  and  _385
REMARK  157  A    between atoms: _395  and  _396
REMARK  158  A    between atoms: _401  and  _403
REMARK  159  A    between atoms: _403  and  _404
REMARK  160  A    between atoms: _403  and  _406
REMARK  161  A    between atoms: _406  and  _407
REMARK  162  A    between atoms: _410  and  _412
REMARK  163  A    between atoms: _412  and  _413
REMARK  164  A    between atoms: _412  and  _415
REMARK  165  A    between atoms: _415  and  _416
REMARK  166  A    between atoms: _421  and  _422
REMARK  167  A    between atoms: _424  and  _426
REMARK  168  A    between atoms: _426  and  _427
REMARK  169  A    between atoms: _426  and  _429
REMARK  170  A    between atoms: _429  and  _430
REMARK  171  A    between atoms: _433  and  _435
REMARK  172  A    between atoms: _435  and  _436
REMARK  173  A    between atoms: _435  and  _438
REMARK  174  A    between atoms: _441  and  _443
REMARK  175  A    between atoms: _443  and  _444
REMARK  176  A    between atoms: _443  and  _446
REMARK  177  A    between atoms: _446  and  _447
REMARK  178  A    between atoms: _450  and  _452
REMARK  179  A    between atoms: _452  and  _453
REMARK  180  A    between atoms: _452  and  _455
REMARK  181  A    between atoms: _455  and  _456
REMARK  182  A    between atoms: _458  and  _460
REMARK  183  A    between atoms: _460  and  _461
REMARK  184  A    between atoms: _463  and  _465
REMARK  185  A    between atoms: _465  and  _466
REMARK  186  A    between atoms: _465  and  _468
REMARK  187  A    between atoms: _468  and  _469
REMARK  188  A    between atoms: _472  and  _474
REMARK  189  A    between atoms: _474  and  _475
REMARK  190  A    between atoms: _474  and  _477
REMARK  191  A    between atoms: _477  and  _478
REMARK  192  A    between atoms: _481  and  _483
REMARK  193  A    between atoms: _483  and  _484
REMARK  194  A    between atoms: _483  and  _486
REMARK  195  A    between atoms: _486  and  _487
REMARK  196  A    between atoms: _492  and  _494
REMARK  197  A    between atoms: _494  and  _495
REMARK  198  A    between atoms: _494  and  _497
REMARK  199  A    between atoms: _497  and  _498
REMARK  200  A    between atoms: _498  and  _499
REMARK  201  A    between atoms: _499  and  _500
REMARK  202  A    between atoms: _509  and  _511
REMARK  203  A    between atoms: _511  and  _512
REMARK  204  A    between atoms: _511  and  _514
REMARK  205  A    between atoms: _514  and  _515
REMARK  206  A    between atoms: _518  and  _520
REMARK  207  A    between atoms: _520  and  _521
REMARK  208  A    between atoms: _520  and  _523
REMARK  209  A    between atoms: _526  and  _528
REMARK  210  A    between atoms: _528  and  _529
REMARK  211  A    between atoms: _531  and  _533
REMARK  212  A    between atoms: _533  and  _534
REMARK  213  A    between atoms: _537  and  _539
REMARK  214  A    between atoms: _539  and  _540
REMARK  215  A    between atoms: _539  and  _542
REMARK                            x       y       z     vdW  Elec       q    Type
REMARK                         _______ _______ _______ _____ _____    ______ ____
ROOT
ATOM      1  O   HOH     1      26.658  17.150  25.779  0.00  0.00    +0.000 OA
ENDROOT
TORSDOF 0
REMARK  Name = ../refined-set-2016/4h3j/4h3j_pocket.pdb
REMARK  215 active torsions:
REMARK  status: ('A' for Active; 'I' for Inactive)
REMARK    1  A    between atoms: _1  and  _3
REMARK    2  A    between atoms: _3  and  _4
REMARK    3  A    between atoms: _3  and  _6
REMARK    4  A    between atoms: _6  and  _7
REMARK    5  A    between atoms: _7  and  _8
REMARK    6  A    between atoms: _8  and  _9
REMARK    7  A    between atoms: _9  and  _10
REMARK    8  A    between atoms: _14  and  _16
REMARK    9  A    between atoms: _16  and  _17
REMARK   10  A    between atoms: _16  and  _19
REMARK   11  A    between atoms: _19  and  _20
REMARK   12  A    between atoms: _22  and  _24
REMARK   13  A    between atoms: _24  and  _25
REMARK   14  A    between atoms: _27  and  _29
REMARK   15  A    between atoms: _29  and  _30
REMARK   16  A    between atoms: _29  and  _32
REMARK   17  A    between atoms: _32  and  _33
REMARK   18  A    between atoms: _33  and  _34
REMARK   19  A    between atoms: _39  and  _41
REMARK   20  A    between atoms: _41  and  _42
REMARK   21  A    between atoms: _44  and  _46
REMARK   22  A    between atoms: _46  and  _47
REMARK   23  A    between atoms: _46  and  _49
REMARK   24  A    between atoms: _49  and  _50
REMARK   25  A    between atoms: _55  and  _56
REMARK   26  A    between atoms: _58  and  _60
REMARK   27  A    between atoms: _60  and  _61
REMARK   28  A    between atoms: _60  and  _63
REMARK   29  A    between atoms: _63  and  _64
REMARK   30  A    between atoms: _67  and  _69
REMARK   31  A    between atoms: _69  and  _70
REMARK   32  A    between atoms: _69  and  _72
REMARK   33  A    between atoms: _75  and  _77
REMARK   34  A    between atoms: _77  and  _78
REMARK   35  A    between atoms: _77  and  _80
REMARK   36  A    between atoms: _80  and  _81
REMARK   37  A    between atoms: _84  and  _86
REMARK   38  A    between atoms: _86  and  _87
REMARK   39  A    between atoms: _86  and  _89
REMARK   40  A    between atoms: _89  and  _90
REMARK   41  A    between atoms: _93  and  _95
REMARK   42  A    between atoms: _95  and  _96
REMARK   43  A    between atoms: _98  and  _100
REMARK   44  A    between atoms: _100  and  _101
REMARK   45  A    between atoms: _100  and  _103
REMARK   46  A    between atoms: _103  and  _104
REMARK   47  A    between atoms: _106  and  _108
REMARK   48  A    between atoms: _108  and  _109
REMARK   49  A    between atoms: _108  and  _111
REMARK   50  A    between atoms: _111  and  _112
REMARK   51  A    between atoms: _114  and  _116
REMARK   52  A    between atoms: _116  and  _117
REMARK   53  A    between atoms: _116  and  _119
REMARK   54  A    between atoms: _119  and  _120
REMARK   55  A    between atoms: _125  and  _127
REMARK   56  A    between atoms: _127  and  _128
REMARK   57  A    between atoms: _127  and  _130
REMARK   58  A    between atoms: _130  and  _131
REMARK   59  A    between atoms: _137  and  _139
REMARK   60  A    between atoms: _139  and  _140
REMARK   61  A    between atoms: _143  and  _145
REMARK   62  A    between atoms: _145  and  _146
REMARK   63  A    between atoms: _145  and  _148
REMARK   64  A    between atoms: _151  and  _153
REMARK   65  A    between atoms: _153  and  _154
REMARK   66  A    between atoms: _153  and  _156
REMARK   67  A    between atoms: _156  and  _157
REMARK   68  A    between atoms: _162  and  _163
REMARK   69  A    between atoms: _165  and  _167
REMARK   70  A    between atoms: _167  and  _168
REMARK   71  A    between atoms: _167  and  _170
REMARK   72  A    between atoms: _174  and  _175
REMARK   73  A    between atoms: _180  and  _182
REMARK   74  A    between atoms: _182  and  _183
REMARK   75  A    between atoms: _182  and  _185
REMARK   76  A    between atoms: _185  and  _186
REMARK   77  A    between atoms: _191  and  _192
REMARK   78  A    between atoms: _194  and  _196
REMARK   79  A    between atoms: _196  and  _197
REMARK   80  A    between atoms: _196  and  _199
REMARK   81  A    between atoms: _199  and  _200
REMARK   82  A    between atoms: _203  and  _205
REMARK   83  A    between atoms: _205  and  _206
REMARK   84  A    between atoms: _205  and  _208
REMARK   85  A    between atoms: _208  and  _209
REMARK   86  A    between atoms: _209  and  _210
REMARK   87  A    between atoms: _215  and  _217
REMARK   88  A    between atoms: _217  and  _218
REMARK   89  A    between atoms: _220  and  _222
REMARK   90  A    between atoms: _222  and  _223
REMARK   91  A    between atoms: _222  and  _225
REMARK   92  A    between atoms: _225  and  _226
REMARK   93  A    between atoms: _226  and  _227
REMARK   94  A    between atoms: _227  and  _228
REMARK   95  A    between atoms: _228  and  _229
REMARK   96  A    between atoms: _233  and  _235
REMARK   97  A    between atoms: _235  and  _236
REMARK   98  A    between atoms: _235  and  _238
REMARK   99  A    between atoms: _238  and  _239
REMARK  100  A    between atoms: _249  and  _251
REMARK  101  A    between atoms: _251  and  _252
REMARK  102  A    between atoms: _255  and  _257
REMARK  103  A    between atoms: _257  and  _258
REMARK  104  A    between atoms: _257  and  _260
REMARK  105  A    between atoms: _260  and  _261
REMARK  106  A    between atoms: _261  and  _262
REMARK  107  A    between atoms: _262  and  _263
REMARK  108  A    between atoms: _263  and  _264
REMARK  109  A    between atoms: _268  and  _270
REMARK  110  A    between atoms: _270  and  _271
REMARK  111  A    between atoms: _270  and  _273
REMARK  112  A    between atoms: _273  and  _274
REMARK  113  A    between atoms: _280  and  _282
REMARK  114  A    between atoms: _282  and  _283
REMARK  115  A    between atoms: _282  and  _285
REMARK  116  A    between atoms: _285  and  _286
REMARK  117  A    between atoms: _292  and  _294
REMARK  118  A    between atoms: _294  and  _295
REMARK  119  A    between atoms: _294  and  _297
REMARK  120  A    between atoms: _297  and  _298
REMARK  121  A    between atoms: _301  and  _303
REMARK  122  A    between atoms: _303  and  _304
REMARK  123  A    between atoms: _303  and  _306
REMARK  124  A    between atoms: _306  and  _307
REMARK  125  A    between atoms: _309  and  _311
REMARK  126  A    between atoms: _311  and  _312
REMARK  127  A    between atoms: _311  and  _314
REMARK  128  A    between atoms: _314  and  _315
REMARK  129  A    between atoms: _325  and  _327
REMARK  130  A    between atoms: _327  and  _328
REMARK  131  A    between atoms: _330  and  _332
REMARK  132  A    between atoms: _332  and  _333
REMARK  133  A    between atoms: _332  and  _335
REMARK  134  A    between atoms: _335  and  _336
REMARK  135  A    between atoms: _339  and  _341
REMARK  136  A    between atoms: _341  and  _342
REMARK  137  A    between atoms: _341  and  _344
REMARK  138  A    between atoms: _344  and  _345
REMARK  139  A    between atoms: _348  and  _350
REMARK  140  A    between atoms: _350  and  _351
REMARK  141  A    between atoms: _353  and  _355
REMARK  142  A    between atoms: _355  and  _356
REMARK  143  A    between atoms: _355  and  _358
REMARK  144  A    between atoms: _358  and  _359
REMARK  145  A    between atoms: _362  and  _364
REMARK  146  A    between atoms: _364  and  _365
REMARK  147  A    between atoms: _364  and  _367
REMARK  148  A    between atoms: _367  and  _368
REMARK  149  A    between atoms: _371  and  _373
REMARK  150  A    between atoms: _373  and  _374
REMARK  151  A    between atoms: _377  and  _379
REMARK  152  A    between atoms: _379  and  _380
REMARK  153  A    between atoms: _379  and  _382
REMARK  154  A    between atoms: _382  and  _383
REMARK  155  A    between atoms: _383  and  _384
REMARK  156  A    between atoms: _384  and  _385
REMARK  157  A    between atoms: _395  and  _396
REMARK  158  A    between atoms: _401  and  _403
REMARK  159  A    between atoms: _403  and  _404
REMARK  160  A    between atoms: _403  and  _406
REMARK  161  A    between atoms: _406  and  _407
REMARK  162  A    between atoms: _410  and  _412
REMARK  163  A    between atoms: _412  and  _413
REMARK  164  A    between atoms: _412  and  _415
REMARK  165  A    between atoms: _415  and  _416
REMARK  166  A    between atoms: _421  and  _422
REMARK  167  A    between atoms: _424  and  _426
REMARK  168  A    between atoms: _426  and  _427
REMARK  169  A    between atoms: _426  and  _429
REMARK  170  A    between atoms: _429  and  _430
REMARK  171  A    between atoms: _433  and  _435
REMARK  172  A    between atoms: _435  and  _436
REMARK  173  A    between atoms: _435  and  _438
REMARK  174  A    between atoms: _441  and  _443
REMARK  175  A    between atoms: _443  and  _444
REMARK  176  A    between atoms: _443  and  _446
REMARK  177  A    between atoms: _446  and  _447
REMARK  178  A    between atoms: _450  and  _452
REMARK  179  A    between atoms: _452  and  _453
REMARK  180  A    between atoms: _452  and  _455
REMARK  181  A    between atoms: _455  and  _456
REMARK  182  A    between atoms: _458  and  _460
REMARK  183  A    between atoms: _460  and  _461
REMARK  184  A    between atoms: _463  and  _465
REMARK  185  A    between atoms: _465  and  _466
REMARK  186  A    between atoms: _465  and  _468
REMARK  187  A    between atoms: _468  and  _469
REMARK  188  A    between atoms: _472  and  _474
REMARK  189  A    between atoms: _474  and  _475
REMARK  190  A    between atoms: _474  and  _477
REMARK  191  A    between atoms: _477  and  _478
REMARK  192  A    between atoms: _481  and  _483
REMARK  193  A    between atoms: _483  and  _484
REMARK  194  A    between atoms: _483  and  _486
REMARK  195  A    between atoms: _486  and  _487
REMARK  196  A    between atoms: _492  and  _494
REMARK  197  A    between atoms: _494  and  _495
REMARK  198  A    between atoms: _494  and  _497
REMARK  199  A    between atoms: _497  and  _498
REMARK  200  A    between atoms: _498  and  _499
REMARK  201  A    between atoms: _499  and  _500
REMARK  202  A    between atoms: _509  and  _511
REMARK  203  A    between atoms: _511  and  _512
REMARK  204  A    between atoms: _511  and  _514
REMARK  205  A    between atoms: _514  and  _515
REMARK  206  A    between atoms: _518  and  _520
REMARK  207  A    between atoms: _520  and  _521
REMARK  208  A    between atoms: _520  and  _523
REMARK  209  A    between atoms: _526  and  _528
REMARK  210  A    between atoms: _528  and  _529
REMARK  211  A    between atoms: _531  and  _533
REMARK  212  A    between atoms: _533  and  _534
REMARK  213  A    between atoms: _537  and  _539
REMARK  214  A    between atoms: _539  and  _540
REMARK  215  A    between atoms: _539  and  _542
REMARK                            x       y       z     vdW  Elec       q    Type
REMARK                         _______ _______ _______ _____ _____    ______ ____
ROOT
ATOM      1  O   HOH     1      20.352  14.900  26.628  0.00  0.00    +0.000 OA
ENDROOT
TORSDOF 0
REMARK  Name = ../refined-set-2016/4h3j/4h3j_pocket.pdb
REMARK  215 active torsions:
REMARK  status: ('A' for Active; 'I' for Inactive)
REMARK    1  A    between atoms: _1  and  _3
REMARK    2  A    between atoms: _3  and  _4
REMARK    3  A    between atoms: _3  and  _6
REMARK    4  A    between atoms: _6  and  _7
REMARK    5  A    between atoms: _7  and  _8
REMARK    6  A    between atoms: _8  and  _9
REMARK    7  A    between atoms: _9  and  _10
REMARK    8  A    between atoms: _14  and  _16
REMARK    9  A    between atoms: _16  and  _17
REMARK   10  A    between atoms: _16  and  _19
REMARK   11  A    between atoms: _19  and  _20
REMARK   12  A    between atoms: _22  and  _24
REMARK   13  A    between atoms: _24  and  _25
REMARK   14  A    between atoms: _27  and  _29
REMARK   15  A    between atoms: _29  and  _30
REMARK   16  A    between atoms: _29  and  _32
REMARK   17  A    between atoms: _32  and  _33
REMARK   18  A    between atoms: _33  and  _34
REMARK   19  A    between atoms: _39  and  _41
REMARK   20  A    between atoms: _41  and  _42
REMARK   21  A    between atoms: _44  and  _46
REMARK   22  A    between atoms: _46  and  _47
REMARK   23  A    between atoms: _46  and  _49
REMARK   24  A    between atoms: _49  and  _50
REMARK   25  A    between atoms: _55  and  _56
REMARK   26  A    between atoms: _58  and  _60
REMARK   27  A    between atoms: _60  and  _61
REMARK   28  A    between atoms: _60  and  _63
REMARK   29  A    between atoms: _63  and  _64
REMARK   30  A    between atoms: _67  and  _69
REMARK   31  A    between atoms: _69  and  _70
REMARK   32  A    between atoms: _69  and  _72
REMARK   33  A    between atoms: _75  and  _77
REMARK   34  A    between atoms: _77  and  _78
REMARK   35  A    between atoms: _77  and  _80
REMARK   36  A    between atoms: _80  and  _81
REMARK   37  A    between atoms: _84  and  _86
REMARK   38  A    between atoms: _86  and  _87
REMARK   39  A    between atoms: _86  and  _89
REMARK   40  A    between atoms: _89  and  _90
REMARK   41  A    between atoms: _93  and  _95
REMARK   42  A    between atoms: _95  and  _96
REMARK   43  A    between atoms: _98  and  _100
REMARK   44  A    between atoms: _100  and  _101
REMARK   45  A    between atoms: _100  and  _103
REMARK   46  A    between atoms: _103  and  _104
REMARK   47  A    between atoms: _106  and  _108
REMARK   48  A    between atoms: _108  and  _109
REMARK   49  A    between atoms: _108  and  _111
REMARK   50  A    between atoms: _111  and  _112
REMARK   51  A    between atoms: _114  and  _116
REMARK   52  A    between atoms: _116  and  _117
REMARK   53  A    between atoms: _116  and  _119
REMARK   54  A    between atoms: _119  and  _120
REMARK   55  A    between atoms: _125  and  _127
REMARK   56  A    between atoms: _127  and  _128
REMARK   57  A    between atoms: _127  and  _130
REMARK   58  A    between atoms: _130  and  _131
REMARK   59  A    between atoms: _137  and  _139
REMARK   60  A    between atoms: _139  and  _140
REMARK   61  A    between atoms: _143  and  _145
REMARK   62  A    between atoms: _145  and  _146
REMARK   63  A    between atoms: _145  and  _148
REMARK   64  A    between atoms: _151  and  _153
REMARK   65  A    between atoms: _153  and  _154
REMARK   66  A    between atoms: _153  and  _156
REMARK   67  A    between atoms: _156  and  _157
REMARK   68  A    between atoms: _162  and  _163
REMARK   69  A    between atoms: _165  and  _167
REMARK   70  A    between atoms: _167  and  _168
REMARK   71  A    between atoms: _167  and  _170
REMARK   72  A    between atoms: _174  and  _175
REMARK   73  A    between atoms: _180  and  _182
REMARK   74  A    between atoms: _182  and  _183
REMARK   75  A    between atoms: _182  and  _185
REMARK   76  A    between atoms: _185  and  _186
REMARK   77  A    between atoms: _191  and  _192
REMARK   78  A    between atoms: _194  and  _196
REMARK   79  A    between atoms: _196  and  _197
REMARK   80  A    between atoms: _196  and  _199
REMARK   81  A    between atoms: _199  and  _200
REMARK   82  A    between atoms: _203  and  _205
REMARK   83  A    between atoms: _205  and  _206
REMARK   84  A    between atoms: _205  and  _208
REMARK   85  A    between atoms: _208  and  _209
REMARK   86  A    between atoms: _209  and  _210
REMARK   87  A    between atoms: _215  and  _217
REMARK   88  A    between atoms: _217  and  _218
REMARK   89  A    between atoms: _220  and  _222
REMARK   90  A    between atoms: _222  and  _223
REMARK   91  A    between atoms: _222  and  _225
REMARK   92  A    between atoms: _225  and  _226
REMARK   93  A    between atoms: _226  and  _227
REMARK   94  A    between atoms: _227  and  _228
REMARK   95  A    between atoms: _228  and  _229
REMARK   96  A    between atoms: _233  and  _235
REMARK   97  A    between atoms: _235  and  _236
REMARK   98  A    between atoms: _235  and  _238
REMARK   99  A    between atoms: _238  and  _239
REMARK  100  A    between atoms: _249  and  _251
REMARK  101  A    between atoms: _251  and  _252
REMARK  102  A    between atoms: _255  and  _257
REMARK  103  A    between atoms: _257  and  _258
REMARK  104  A    between atoms: _257  and  _260
REMARK  105  A    between atoms: _260  and  _261
REMARK  106  A    between atoms: _261  and  _262
REMARK  107  A    between atoms: _262  and  _263
REMARK  108  A    between atoms: _263  and  _264
REMARK  109  A    between atoms: _268  and  _270
REMARK  110  A    between atoms: _270  and  _271
REMARK  111  A    between atoms: _270  and  _273
REMARK  112  A    between atoms: _273  and  _274
REMARK  113  A    between atoms: _280  and  _282
REMARK  114  A    between atoms: _282  and  _283
REMARK  115  A    between atoms: _282  and  _285
REMARK  116  A    between atoms: _285  and  _286
REMARK  117  A    between atoms: _292  and  _294
REMARK  118  A    between atoms: _294  and  _295
REMARK  119  A    between atoms: _294  and  _297
REMARK  120  A    between atoms: _297  and  _298
REMARK  121  A    between atoms: _301  and  _303
REMARK  122  A    between atoms: _303  and  _304
REMARK  123  A    between atoms: _303  and  _306
REMARK  124  A    between atoms: _306  and  _307
REMARK  125  A    between atoms: _309  and  _311
REMARK  126  A    between atoms: _311  and  _312
REMARK  127  A    between atoms: _311  and  _314
REMARK  128  A    between atoms: _314  and  _315
REMARK  129  A    between atoms: _325  and  _327
REMARK  130  A    between atoms: _327  and  _328
REMARK  131  A    between atoms: _330  and  _332
REMARK  132  A    between atoms: _332  and  _333
REMARK  133  A    between atoms: _332  and  _335
REMARK  134  A    between atoms: _335  and  _336
REMARK  135  A    between atoms: _339  and  _341
REMARK  136  A    between atoms: _341  and  _342
REMARK  137  A    between atoms: _341  and  _344
REMARK  138  A    between atoms: _344  and  _345
REMARK  139  A    between atoms: _348  and  _350
REMARK  140  A    between atoms: _350  and  _351
REMARK  141  A    between atoms: _353  and  _355
REMARK  142  A    between atoms: _355  and  _356
REMARK  143  A    between atoms: _355  and  _358
REMARK  144  A    between atoms: _358  and  _359
REMARK  145  A    between atoms: _362  and  _364
REMARK  146  A    between atoms: _364  and  _365
REMARK  147  A    between atoms: _364  and  _367
REMARK  148  A    between atoms: _367  and  _368
REMARK  149  A    between atoms: _371  and  _373
REMARK  150  A    between atoms: _373  and  _374
REMARK  151  A    between atoms: _377  and  _379
REMARK  152  A    between atoms: _379  and  _380
REMARK  153  A    between atoms: _379  and  _382
REMARK  154  A    between atoms: _382  and  _383
REMARK  155  A    between atoms: _383  and  _384
REMARK  156  A    between atoms: _384  and  _385
REMARK  157  A    between atoms: _395  and  _396
REMARK  158  A    between atoms: _401  and  _403
REMARK  159  A    between atoms: _403  and  _404
REMARK  160  A    between atoms: _403  and  _406
REMARK  161  A    between atoms: _406  and  _407
REMARK  162  A    between atoms: _410  and  _412
REMARK  163  A    between atoms: _412  and  _413
REMARK  164  A    between atoms: _412  and  _415
REMARK  165  A    between atoms: _415  and  _416
REMARK  166  A    between atoms: _421  and  _422
REMARK  167  A    between atoms: _424  and  _426
REMARK  168  A    between atoms: _426  and  _427
REMARK  169  A    between atoms: _426  and  _429
REMARK  170  A    between atoms: _429  and  _430
REMARK  171  A    between atoms: _433  and  _435
REMARK  172  A    between atoms: _435  and  _436
REMARK  173  A    between atoms: _435  and  _438
REMARK  174  A    between atoms: _441  and  _443
REMARK  175  A    between atoms: _443  and  _444
REMARK  176  A    between atoms: _443  and  _446
REMARK  177  A    between atoms: _446  and  _447
REMARK  178  A    between atoms: _450  and  _452
REMARK  179  A    between atoms: _452  and  _453
REMARK  180  A    between atoms: _452  and  _455
REMARK  181  A    between atoms: _455  and  _456
REMARK  182  A    between atoms: _458  and  _460
REMARK  183  A    between atoms: _460  and  _461
REMARK  184  A    between atoms: _463  and  _465
REMARK  185  A    between atoms: _465  and  _466
REMARK  186  A    between atoms: _465  and  _468
REMARK  187  A    between atoms: _468  and  _469
REMARK  188  A    between atoms: _472  and  _474
REMARK  189  A    between atoms: _474  and  _475
REMARK  190  A    between atoms: _474  and  _477
REMARK  191  A    between atoms: _477  and  _478
REMARK  192  A    between atoms: _481  and  _483
REMARK  193  A    between atoms: _483  and  _484
REMARK  194  A    between atoms: _483  and  _486
REMARK  195  A    between atoms: _486  and  _487
REMARK  196  A    between atoms: _492  and  _494
REMARK  197  A    between atoms: _494  and  _495
REMARK  198  A    between atoms: _494  and  _497
REMARK  199  A    between atoms: _497  and  _498
REMARK  200  A    between atoms: _498  and  _499
REMARK  201  A    between atoms: _499  and  _500
REMARK  202  A    between atoms: _509  and  _511
REMARK  203  A    between atoms: _511  and  _512
REMARK  204  A    between atoms: _511  and  _514
REMARK  205  A    between atoms: _514  and  _515
REMARK  206  A    between atoms: _518  and  _520
REMARK  207  A    between atoms: _520  and  _521
REMARK  208  A    between atoms: _520  and  _523
REMARK  209  A    between atoms: _526  and  _528
REMARK  210  A    between atoms: _528  and  _529
REMARK  211  A    between atoms: _531  and  _533
REMARK  212  A    between atoms: _533  and  _534
REMARK  213  A    between atoms: _537  and  _539
REMARK  214  A    between atoms: _539  and  _540
REMARK  215  A    between atoms: _539  and  _542
REMARK                            x       y       z     vdW  Elec       q    Type
REMARK                         _______ _______ _______ _____ _____    ______ ____
ROOT
ATOM      1  O   HOH     1      22.287  15.993  25.157  0.00  0.00    +0.000 OA
ENDROOT
TORSDOF 0
REMARK  Name = ../refined-set-2016/4h3j/4h3j_pocket.pdb
REMARK  215 active torsions:
REMARK  status: ('A' for Active; 'I' for Inactive)
REMARK    1  A    between atoms: _1  and  _3
REMARK    2  A    between atoms: _3  and  _4
REMARK    3  A    between atoms: _3  and  _6
REMARK    4  A    between atoms: _6  and  _7
REMARK    5  A    between atoms: _7  and  _8
REMARK    6  A    between atoms: _8  and  _9
REMARK    7  A    between atoms: _9  and  _10
REMARK    8  A    between atoms: _14  and  _16
REMARK    9  A    between atoms: _16  and  _17
REMARK   10  A    between atoms: _16  and  _19
REMARK   11  A    between atoms: _19  and  _20
REMARK   12  A    between atoms: _22  and  _24
REMARK   13  A    between atoms: _24  and  _25
REMARK   14  A    between atoms: _27  and  _29
REMARK   15  A    between atoms: _29  and  _30
REMARK   16  A    between atoms: _29  and  _32
REMARK   17  A    between atoms: _32  and  _33
REMARK   18  A    between atoms: _33  and  _34
REMARK   19  A    between atoms: _39  and  _41
REMARK   20  A    between atoms: _41  and  _42
REMARK   21  A    between atoms: _44  and  _46
REMARK   22  A    between atoms: _46  and  _47
REMARK   23  A    between atoms: _46  and  _49
REMARK   24  A    between atoms: _49  and  _50
REMARK   25  A    between atoms: _55  and  _56
REMARK   26  A    between atoms: _58  and  _60
REMARK   27  A    between atoms: _60  and  _61
REMARK   28  A    between atoms: _60  and  _63
REMARK   29  A    between atoms: _63  and  _64
REMARK   30  A    between atoms: _67  and  _69
REMARK   31  A    between atoms: _69  and  _70
REMARK   32  A    between atoms: _69  and  _72
REMARK   33  A    between atoms: _75  and  _77
REMARK   34  A    between atoms: _77  and  _78
REMARK   35  A    between atoms: _77  and  _80
REMARK   36  A    between atoms: _80  and  _81
REMARK   37  A    between atoms: _84  and  _86
REMARK   38  A    between atoms: _86  and  _87
REMARK   39  A    between atoms: _86  and  _89
REMARK   40  A    between atoms: _89  and  _90
REMARK   41  A    between atoms: _93  and  _95
REMARK   42  A    between atoms: _95  and  _96
REMARK   43  A    between atoms: _98  and  _100
REMARK   44  A    between atoms: _100  and  _101
REMARK   45  A    between atoms: _100  and  _103
REMARK   46  A    between atoms: _103  and  _104
REMARK   47  A    between atoms: _106  and  _108
REMARK   48  A    between atoms: _108  and  _109
REMARK   49  A    between atoms: _108  and  _111
REMARK   50  A    between atoms: _111  and  _112
REMARK   51  A    between atoms: _114  and  _116
REMARK   52  A    between atoms: _116  and  _117
REMARK   53  A    between atoms: _116  and  _119
REMARK   54  A    between atoms: _119  and  _120
REMARK   55  A    between atoms: _125  and  _127
REMARK   56  A    between atoms: _127  and  _128
REMARK   57  A    between atoms: _127  and  _130
REMARK   58  A    between atoms: _130  and  _131
REMARK   59  A    between atoms: _137  and  _139
REMARK   60  A    between atoms: _139  and  _140
REMARK   61  A    between atoms: _143  and  _145
REMARK   62  A    between atoms: _145  and  _146
REMARK   63  A    between atoms: _145  and  _148
REMARK   64  A    between atoms: _151  and  _153
REMARK   65  A    between atoms: _153  and  _154
REMARK   66  A    between atoms: _153  and  _156
REMARK   67  A    between atoms: _156  and  _157
REMARK   68  A    between atoms: _162  and  _163
REMARK   69  A    between atoms: _165  and  _167
REMARK   70  A    between atoms: _167  and  _168
REMARK   71  A    between atoms: _167  and  _170
REMARK   72  A    between atoms: _174  and  _175
REMARK   73  A    between atoms: _180  and  _182
REMARK   74  A    between atoms: _182  and  _183
REMARK   75  A    between atoms: _182  and  _185
REMARK   76  A    between atoms: _185  and  _186
REMARK   77  A    between atoms: _191  and  _192
REMARK   78  A    between atoms: _194  and  _196
REMARK   79  A    between atoms: _196  and  _197
REMARK   80  A    between atoms: _196  and  _199
REMARK   81  A    between atoms: _199  and  _200
REMARK   82  A    between atoms: _203  and  _205
REMARK   83  A    between atoms: _205  and  _206
REMARK   84  A    between atoms: _205  and  _208
REMARK   85  A    between atoms: _208  and  _209
REMARK   86  A    between atoms: _209  and  _210
REMARK   87  A    between atoms: _215  and  _217
REMARK   88  A    between atoms: _217  and  _218
REMARK   89  A    between atoms: _220  and  _222
REMARK   90  A    between atoms: _222  and  _223
REMARK   91  A    between atoms: _222  and  _225
REMARK   92  A    between atoms: _225  and  _226
REMARK   93  A    between atoms: _226  and  _227
REMARK   94  A    between atoms: _227  and  _228
REMARK   95  A    between atoms: _228  and  _229
REMARK   96  A    between atoms: _233  and  _235
REMARK   97  A    between atoms: _235  and  _236
REMARK   98  A    between atoms: _235  and  _238
REMARK   99  A    between atoms: _238  and  _239
REMARK  100  A    between atoms: _249  and  _251
REMARK  101  A    between atoms: _251  and  _252
REMARK  102  A    between atoms: _255  and  _257
REMARK  103  A    between atoms: _257  and  _258
REMARK  104  A    between atoms: _257  and  _260
REMARK  105  A    between atoms: _260  and  _261
REMARK  106  A    between atoms: _261  and  _262
REMARK  107  A    between atoms: _262  and  _263
REMARK  108  A    between atoms: _263  and  _264
REMARK  109  A    between atoms: _268  and  _270
REMARK  110  A    between atoms: _270  and  _271
REMARK  111  A    between atoms: _270  and  _273
REMARK  112  A    between atoms: _273  and  _274
REMARK  113  A    between atoms: _280  and  _282
REMARK  114  A    between atoms: _282  and  _283
REMARK  115  A    between atoms: _282  and  _285
REMARK  116  A    between atoms: _285  and  _286
REMARK  117  A    between atoms: _292  and  _294
REMARK  118  A    between atoms: _294  and  _295
REMARK  119  A    between atoms: _294  and  _297
REMARK  120  A    between atoms: _297  and  _298
REMARK  121  A    between atoms: _301  and  _303
REMARK  122  A    between atoms: _303  and  _304
REMARK  123  A    between atoms: _303  and  _306
REMARK  124  A    between atoms: _306  and  _307
REMARK  125  A    between atoms: _309  and  _311
REMARK  126  A    between atoms: _311  and  _312
REMARK  127  A    between atoms: _311  and  _314
REMARK  128  A    between atoms: _314  and  _315
REMARK  129  A    between atoms: _325  and  _327
REMARK  130  A    between atoms: _327  and  _328
REMARK  131  A    between atoms: _330  and  _332
REMARK  132  A    between atoms: _332  and  _333
REMARK  133  A    between atoms: _332  and  _335
REMARK  134  A    between atoms: _335  and  _336
REMARK  135  A    between atoms: _339  and  _341
REMARK  136  A    between atoms: _341  and  _342
REMARK  137  A    between atoms: _341  and  _344
REMARK  138  A    between atoms: _344  and  _345
REMARK  139  A    between atoms: _348  and  _350
REMARK  140  A    between atoms: _350  and  _351
REMARK  141  A    between atoms: _353  and  _355
REMARK  142  A    between atoms: _355  and  _356
REMARK  143  A    between atoms: _355  and  _358
REMARK  144  A    between atoms: _358  and  _359
REMARK  145  A    between atoms: _362  and  _364
REMARK  146  A    between atoms: _364  and  _365
REMARK  147  A    between atoms: _364  and  _367
REMARK  148  A    between atoms: _367  and  _368
REMARK  149  A    between atoms: _371  and  _373
REMARK  150  A    between atoms: _373  and  _374
REMARK  151  A    between atoms: _377  and  _379
REMARK  152  A    between atoms: _379  and  _380
REMARK  153  A    between atoms: _379  and  _382
REMARK  154  A    between atoms: _382  and  _383
REMARK  155  A    between atoms: _383  and  _384
REMARK  156  A    between atoms: _384  and  _385
REMARK  157  A    between atoms: _395  and  _396
REMARK  158  A    between atoms: _401  and  _403
REMARK  159  A    between atoms: _403  and  _404
REMARK  160  A    between atoms: _403  and  _406
REMARK  161  A    between atoms: _406  and  _407
REMARK  162  A    between atoms: _410  and  _412
REMARK  163  A    between atoms: _412  and  _413
REMARK  164  A    between atoms: _412  and  _415
REMARK  165  A    between atoms: _415  and  _416
REMARK  166  A    between atoms: _421  and  _422
REMARK  167  A    between atoms: _424  and  _426
REMARK  168  A    between atoms: _426  and  _427
REMARK  169  A    between atoms: _426  and  _429
REMARK  170  A    between atoms: _429  and  _430
REMARK  171  A    between atoms: _433  and  _435
REMARK  172  A    between atoms: _435  and  _436
REMARK  173  A    between atoms: _435  and  _438
REMARK  174  A    between atoms: _441  and  _443
REMARK  175  A    between atoms: _443  and  _444
REMARK  176  A    between atoms: _443  and  _446
REMARK  177  A    between atoms: _446  and  _447
REMARK  178  A    between atoms: _450  and  _452
REMARK  179  A    between atoms: _452  and  _453
REMARK  180  A    between atoms: _452  and  _455
REMARK  181  A    between atoms: _455  and  _456
REMARK  182  A    between atoms: _458  and  _460
REMARK  183  A    between atoms: _460  and  _461
REMARK  184  A    between atoms: _463  and  _465
REMARK  185  A    between atoms: _465  and  _466
REMARK  186  A    between atoms: _465  and  _468
REMARK  187  A    between atoms: _468  and  _469
REMARK  188  A    between atoms: _472  and  _474
REMARK  189  A    between atoms: _474  and  _475
REMARK  190  A    between atoms: _474  and  _477
REMARK  191  A    between atoms: _477  and  _478
REMARK  192  A    between atoms: _481  and  _483
REMARK  193  A    between atoms: _483  and  _484
REMARK  194  A    between atoms: _483  and  _486
REMARK  195  A    between atoms: _486  and  _487
REMARK  196  A    between atoms: _492  and  _494
REMARK  197  A    between atoms: _494  and  _495
REMARK  198  A    between atoms: _494  and  _497
REMARK  199  A    between atoms: _497  and  _498
REMARK  200  A    between atoms: _498  and  _499
REMARK  201  A    between atoms: _499  and  _500
REMARK  202  A    between atoms: _509  and  _511
REMARK  203  A    between atoms: _511  and  _512
REMARK  204  A    between atoms: _511  and  _514
REMARK  205  A    between atoms: _514  and  _515
REMARK  206  A    between atoms: _518  and  _520
REMARK  207  A    between atoms: _520  and  _521
REMARK  208  A    between atoms: _520  and  _523
REMARK  209  A    between atoms: _526  and  _528
REMARK  210  A    between atoms: _528  and  _529
REMARK  211  A    between atoms: _531  and  _533
REMARK  212  A    between atoms: _533  and  _534
REMARK  213  A    between atoms: _537  and  _539
REMARK  214  A    between atoms: _539  and  _540
REMARK  215  A    between atoms: _539  and  _542
REMARK                            x       y       z     vdW  Elec       q    Type
REMARK                         _______ _______ _______ _____ _____    ______ ____
ROOT
ATOM      1  O   HOH     1      21.586  11.136  28.343  0.00  0.00    +0.000 OA
ENDROOT
TORSDOF 0
REMARK  Name = ../refined-set-2016/4h3j/4h3j_pocket.pdb
REMARK  215 active torsions:
REMARK  status: ('A' for Active; 'I' for Inactive)
REMARK    1  A    between atoms: _1  and  _3
REMARK    2  A    between atoms: _3  and  _4
REMARK    3  A    between atoms: _3  and  _6
REMARK    4  A    between atoms: _6  and  _7
REMARK    5  A    between atoms: _7  and  _8
REMARK    6  A    between atoms: _8  and  _9
REMARK    7  A    between atoms: _9  and  _10
REMARK    8  A    between atoms: _14  and  _16
REMARK    9  A    between atoms: _16  and  _17
REMARK   10  A    between atoms: _16  and  _19
REMARK   11  A    between atoms: _19  and  _20
REMARK   12  A    between atoms: _22  and  _24
REMARK   13  A    between atoms: _24  and  _25
REMARK   14  A    between atoms: _27  and  _29
REMARK   15  A    between atoms: _29  and  _30
REMARK   16  A    between atoms: _29  and  _32
REMARK   17  A    between atoms: _32  and  _33
REMARK   18  A    between atoms: _33  and  _34
REMARK   19  A    between atoms: _39  and  _41
REMARK   20  A    between atoms: _41  and  _42
REMARK   21  A    between atoms: _44  and  _46
REMARK   22  A    between atoms: _46  and  _47
REMARK   23  A    between atoms: _46  and  _49
REMARK   24  A    between atoms: _49  and  _50
REMARK   25  A    between atoms: _55  and  _56
REMARK   26  A    between atoms: _58  and  _60
REMARK   27  A    between atoms: _60  and  _61
REMARK   28  A    between atoms: _60  and  _63
REMARK   29  A    between atoms: _63  and  _64
REMARK   30  A    between atoms: _67  and  _69
REMARK   31  A    between atoms: _69  and  _70
REMARK   32  A    between atoms: _69  and  _72
REMARK   33  A    between atoms: _75  and  _77
REMARK   34  A    between atoms: _77  and  _78
REMARK   35  A    between atoms: _77  and  _80
REMARK   36  A    between atoms: _80  and  _81
REMARK   37  A    between atoms: _84  and  _86
REMARK   38  A    between atoms: _86  and  _87
REMARK   39  A    between atoms: _86  and  _89
REMARK   40  A    between atoms: _89  and  _90
REMARK   41  A    between atoms: _93  and  _95
REMARK   42  A    between atoms: _95  and  _96
REMARK   43  A    between atoms: _98  and  _100
REMARK   44  A    between atoms: _100  and  _101
REMARK   45  A    between atoms: _100  and  _103
REMARK   46  A    between atoms: _103  and  _104
REMARK   47  A    between atoms: _106  and  _108
REMARK   48  A    between atoms: _108  and  _109
REMARK   49  A    between atoms: _108  and  _111
REMARK   50  A    between atoms: _111  and  _112
REMARK   51  A    between atoms: _114  and  _116
REMARK   52  A    between atoms: _116  and  _117
REMARK   53  A    between atoms: _116  and  _119
REMARK   54  A    between atoms: _119  and  _120
REMARK   55  A    between atoms: _125  and  _127
REMARK   56  A    between atoms: _127  and  _128
REMARK   57  A    between atoms: _127  and  _130
REMARK   58  A    between atoms: _130  and  _131
REMARK   59  A    between atoms: _137  and  _139
REMARK   60  A    between atoms: _139  and  _140
REMARK   61  A    between atoms: _143  and  _145
REMARK   62  A    between atoms: _145  and  _146
REMARK   63  A    between atoms: _145  and  _148
REMARK   64  A    between atoms: _151  and  _153
REMARK   65  A    between atoms: _153  and  _154
REMARK   66  A    between atoms: _153  and  _156
REMARK   67  A    between atoms: _156  and  _157
REMARK   68  A    between atoms: _162  and  _163
REMARK   69  A    between atoms: _165  and  _167
REMARK   70  A    between atoms: _167  and  _168
REMARK   71  A    between atoms: _167  and  _170
REMARK   72  A    between atoms: _174  and  _175
REMARK   73  A    between atoms: _180  and  _182
REMARK   74  A    between atoms: _182  and  _183
REMARK   75  A    between atoms: _182  and  _185
REMARK   76  A    between atoms: _185  and  _186
REMARK   77  A    between atoms: _191  and  _192
REMARK   78  A    between atoms: _194  and  _196
REMARK   79  A    between atoms: _196  and  _197
REMARK   80  A    between atoms: _196  and  _199
REMARK   81  A    between atoms: _199  and  _200
REMARK   82  A    between atoms: _203  and  _205
REMARK   83  A    between atoms: _205  and  _206
REMARK   84  A    between atoms: _205  and  _208
REMARK   85  A    between atoms: _208  and  _209
REMARK   86  A    between atoms: _209  and  _210
REMARK   87  A    between atoms: _215  and  _217
REMARK   88  A    between atoms: _217  and  _218
REMARK   89  A    between atoms: _220  and  _222
REMARK   90  A    between atoms: _222  and  _223
REMARK   91  A    between atoms: _222  and  _225
REMARK   92  A    between atoms: _225  and  _226
REMARK   93  A    between atoms: _226  and  _227
REMARK   94  A    between atoms: _227  and  _228
REMARK   95  A    between atoms: _228  and  _229
REMARK   96  A    between atoms: _233  and  _235
REMARK   97  A    between atoms: _235  and  _236
REMARK   98  A    between atoms: _235  and  _238
REMARK   99  A    between atoms: _238  and  _239
REMARK  100  A    between atoms: _249  and  _251
REMARK  101  A    between atoms: _251  and  _252
REMARK  102  A    between atoms: _255  and  _257
REMARK  103  A    between atoms: _257  and  _258
REMARK  104  A    between atoms: _257  and  _260
REMARK  105  A    between atoms: _260  and  _261
REMARK  106  A    between atoms: _261  and  _262
REMARK  107  A    between atoms: _262  and  _263
REMARK  108  A    between atoms: _263  and  _264
REMARK  109  A    between atoms: _268  and  _270
REMARK  110  A    between atoms: _270  and  _271
REMARK  111  A    between atoms: _270  and  _273
REMARK  112  A    between atoms: _273  and  _274
REMARK  113  A    between atoms: _280  and  _282
REMARK  114  A    between atoms: _282  and  _283
REMARK  115  A    between atoms: _282  and  _285
REMARK  116  A    between atoms: _285  and  _286
REMARK  117  A    between atoms: _292  and  _294
REMARK  118  A    between atoms: _294  and  _295
REMARK  119  A    between atoms: _294  and  _297
REMARK  120  A    between atoms: _297  and  _298
REMARK  121  A    between atoms: _301  and  _303
REMARK  122  A    between atoms: _303  and  _304
REMARK  123  A    between atoms: _303  and  _306
REMARK  124  A    between atoms: _306  and  _307
REMARK  125  A    between atoms: _309  and  _311
REMARK  126  A    between atoms: _311  and  _312
REMARK  127  A    between atoms: _311  and  _314
REMARK  128  A    between atoms: _314  and  _315
REMARK  129  A    between atoms: _325  and  _327
REMARK  130  A    between atoms: _327  and  _328
REMARK  131  A    between atoms: _330  and  _332
REMARK  132  A    between atoms: _332  and  _333
REMARK  133  A    between atoms: _332  and  _335
REMARK  134  A    between atoms: _335  and  _336
REMARK  135  A    between atoms: _339  and  _341
REMARK  136  A    between atoms: _341  and  _342
REMARK  137  A    between atoms: _341  and  _344
REMARK  138  A    between atoms: _344  and  _345
REMARK  139  A    between atoms: _348  and  _350
REMARK  140  A    between atoms: _350  and  _351
REMARK  141  A    between atoms: _353  and  _355
REMARK  142  A    between atoms: _355  and  _356
REMARK  143  A    between atoms: _355  and  _358
REMARK  144  A    between atoms: _358  and  _359
REMARK  145  A    between atoms: _362  and  _364
REMARK  146  A    between atoms: _364  and  _365
REMARK  147  A    between atoms: _364  and  _367
REMARK  148  A    between atoms: _367  and  _368
REMARK  149  A    between atoms: _371  and  _373
REMARK  150  A    between atoms: _373  and  _374
REMARK  151  A    between atoms: _377  and  _379
REMARK  152  A    between atoms: _379  and  _380
REMARK  153  A    between atoms: _379  and  _382
REMARK  154  A    between atoms: _382  and  _383
REMARK  155  A    between atoms: _383  and  _384
REMARK  156  A    between atoms: _384  and  _385
REMARK  157  A    between atoms: _395  and  _396
REMARK  158  A    between atoms: _401  and  _403
REMARK  159  A    between atoms: _403  and  _404
REMARK  160  A    between atoms: _403  and  _406
REMARK  161  A    between atoms: _406  and  _407
REMARK  162  A    between atoms: _410  and  _412
REMARK  163  A    between atoms: _412  and  _413
REMARK  164  A    between atoms: _412  and  _415
REMARK  165  A    between atoms: _415  and  _416
REMARK  166  A    between atoms: _421  and  _422
REMARK  167  A    between atoms: _424  and  _426
REMARK  168  A    between atoms: _426  and  _427
REMARK  169  A    between atoms: _426  and  _429
REMARK  170  A    between atoms: _429  and  _430
REMARK  171  A    between atoms: _433  and  _435
REMARK  172  A    between atoms: _435  and  _436
REMARK  173  A    between atoms: _435  and  _438
REMARK  174  A    between atoms: _441  and  _443
REMARK  175  A    between atoms: _443  and  _444
REMARK  176  A    between atoms: _443  and  _446
REMARK  177  A    between atoms: _446  and  _447
REMARK  178  A    between atoms: _450  and  _452
REMARK  179  A    between atoms: _452  and  _453
REMARK  180  A    between atoms: _452  and  _455
REMARK  181  A    between atoms: _455  and  _456
REMARK  182  A    between atoms: _458  and  _460
REMARK  183  A    between atoms: _460  and  _461
REMARK  184  A    between atoms: _463  and  _465
REMARK  185  A    between atoms: _465  and  _466
REMARK  186  A    between atoms: _465  and  _468
REMARK  187  A    between atoms: _468  and  _469
REMARK  188  A    between atoms: _472  and  _474
REMARK  189  A    between atoms: _474  and  _475
REMARK  190  A    between atoms: _474  and  _477
REMARK  191  A    between atoms: _477  and  _478
REMARK  192  A    between atoms: _481  and  _483
REMARK  193  A    between atoms: _483  and  _484
REMARK  194  A    between atoms: _483  and  _486
REMARK  195  A    between atoms: _486  and  _487
REMARK  196  A    between atoms: _492  and  _494
REMARK  197  A    between atoms: _494  and  _495
REMARK  198  A    between atoms: _494  and  _497
REMARK  199  A    between atoms: _497  and  _498
REMARK  200  A    between atoms: _498  and  _499
REMARK  201  A    between atoms: _499  and  _500
REMARK  202  A    between atoms: _509  and  _511
REMARK  203  A    between atoms: _511  and  _512
REMARK  204  A    between atoms: _511  and  _514
REMARK  205  A    between atoms: _514  and  _515
REMARK  206  A    between atoms: _518  and  _520
REMARK  207  A    between atoms: _520  and  _521
REMARK  208  A    between atoms: _520  and  _523
REMARK  209  A    between atoms: _526  and  _528
REMARK  210  A    between atoms: _528  and  _529
REMARK  211  A    between atoms: _531  and  _533
REMARK  212  A    between atoms: _533  and  _534
REMARK  213  A    between atoms: _537  and  _539
REMARK  214  A    between atoms: _539  and  _540
REMARK  215  A    between atoms: _539  and  _542
REMARK                            x       y       z     vdW  Elec       q    Type
REMARK                         _______ _______ _______ _____ _____    ______ ____
ROOT
ATOM      1  O   HOH     1      17.459  13.260  29.859  0.00  0.00    +0.000 OA
ENDROOT
TORSDOF 0
REMARK  Name = ../refined-set-2016/4h3j/4h3j_pocket.pdb
REMARK  215 active torsions:
REMARK  status: ('A' for Active; 'I' for Inactive)
REMARK    1  A    between atoms: _1  and  _3
REMARK    2  A    between atoms: _3  and  _4
REMARK    3  A    between atoms: _3  and  _6
REMARK    4  A    between atoms: _6  and  _7
REMARK    5  A    between atoms: _7  and  _8
REMARK    6  A    between atoms: _8  and  _9
REMARK    7  A    between atoms: _9  and  _10
REMARK    8  A    between atoms: _14  and  _16
REMARK    9  A    between atoms: _16  and  _17
REMARK   10  A    between atoms: _16  and  _19
REMARK   11  A    between atoms: _19  and  _20
REMARK   12  A    between atoms: _22  and  _24
REMARK   13  A    between atoms: _24  and  _25
REMARK   14  A    between atoms: _27  and  _29
REMARK   15  A    between atoms: _29  and  _30
REMARK   16  A    between atoms: _29  and  _32
REMARK   17  A    between atoms: _32  and  _33
REMARK   18  A    between atoms: _33  and  _34
REMARK   19  A    between atoms: _39  and  _41
REMARK   20  A    between atoms: _41  and  _42
REMARK   21  A    between atoms: _44  and  _46
REMARK   22  A    between atoms: _46  and  _47
REMARK   23  A    between atoms: _46  and  _49
REMARK   24  A    between atoms: _49  and  _50
REMARK   25  A    between atoms: _55  and  _56
REMARK   26  A    between atoms: _58  and  _60
REMARK   27  A    between atoms: _60  and  _61
REMARK   28  A    between atoms: _60  and  _63
REMARK   29  A    between atoms: _63  and  _64
REMARK   30  A    between atoms: _67  and  _69
REMARK   31  A    between atoms: _69  and  _70
REMARK   32  A    between atoms: _69  and  _72
REMARK   33  A    between atoms: _75  and  _77
REMARK   34  A    between atoms: _77  and  _78
REMARK   35  A    between atoms: _77  and  _80
REMARK   36  A    between atoms: _80  and  _81
REMARK   37  A    between atoms: _84  and  _86
REMARK   38  A    between atoms: _86  and  _87
REMARK   39  A    between atoms: _86  and  _89
REMARK   40  A    between atoms: _89  and  _90
REMARK   41  A    between atoms: _93  and  _95
REMARK   42  A    between atoms: _95  and  _96
REMARK   43  A    between atoms: _98  and  _100
REMARK   44  A    between atoms: _100  and  _101
REMARK   45  A    between atoms: _100  and  _103
REMARK   46  A    between atoms: _103  and  _104
REMARK   47  A    between atoms: _106  and  _108
REMARK   48  A    between atoms: _108  and  _109
REMARK   49  A    between atoms: _108  and  _111
REMARK   50  A    between atoms: _111  and  _112
REMARK   51  A    between atoms: _114  and  _116
REMARK   52  A    between atoms: _116  and  _117
REMARK   53  A    between atoms: _116  and  _119
REMARK   54  A    between atoms: _119  and  _120
REMARK   55  A    between atoms: _125  and  _127
REMARK   56  A    between atoms: _127  and  _128
REMARK   57  A    between atoms: _127  and  _130
REMARK   58  A    between atoms: _130  and  _131
REMARK   59  A    between atoms: _137  and  _139
REMARK   60  A    between atoms: _139  and  _140
REMARK   61  A    between atoms: _143  and  _145
REMARK   62  A    between atoms: _145  and  _146
REMARK   63  A    between atoms: _145  and  _148
REMARK   64  A    between atoms: _151  and  _153
REMARK   65  A    between atoms: _153  and  _154
REMARK   66  A    between atoms: _153  and  _156
REMARK   67  A    between atoms: _156  and  _157
REMARK   68  A    between atoms: _162  and  _163
REMARK   69  A    between atoms: _165  and  _167
REMARK   70  A    between atoms: _167  and  _168
REMARK   71  A    between atoms: _167  and  _170
REMARK   72  A    between atoms: _174  and  _175
REMARK   73  A    between atoms: _180  and  _182
REMARK   74  A    between atoms: _182  and  _183
REMARK   75  A    between atoms: _182  and  _185
REMARK   76  A    between atoms: _185  and  _186
REMARK   77  A    between atoms: _191  and  _192
REMARK   78  A    between atoms: _194  and  _196
REMARK   79  A    between atoms: _196  and  _197
REMARK   80  A    between atoms: _196  and  _199
REMARK   81  A    between atoms: _199  and  _200
REMARK   82  A    between atoms: _203  and  _205
REMARK   83  A    between atoms: _205  and  _206
REMARK   84  A    between atoms: _205  and  _208
REMARK   85  A    between atoms: _208  and  _209
REMARK   86  A    between atoms: _209  and  _210
REMARK   87  A    between atoms: _215  and  _217
REMARK   88  A    between atoms: _217  and  _218
REMARK   89  A    between atoms: _220  and  _222
REMARK   90  A    between atoms: _222  and  _223
REMARK   91  A    between atoms: _222  and  _225
REMARK   92  A    between atoms: _225  and  _226
REMARK   93  A    between atoms: _226  and  _227
REMARK   94  A    between atoms: _227  and  _228
REMARK   95  A    between atoms: _228  and  _229
REMARK   96  A    between atoms: _233  and  _235
REMARK   97  A    between atoms: _235  and  _236
REMARK   98  A    between atoms: _235  and  _238
REMARK   99  A    between atoms: _238  and  _239
REMARK  100  A    between atoms: _249  and  _251
REMARK  101  A    between atoms: _251  and  _252
REMARK  102  A    between atoms: _255  and  _257
REMARK  103  A    between atoms: _257  and  _258
REMARK  104  A    between atoms: _257  and  _260
REMARK  105  A    between atoms: _260  and  _261
REMARK  106  A    between atoms: _261  and  _262
REMARK  107  A    between atoms: _262  and  _263
REMARK  108  A    between atoms: _263  and  _264
REMARK  109  A    between atoms: _268  and  _270
REMARK  110  A    between atoms: _270  and  _271
REMARK  111  A    between atoms: _270  and  _273
REMARK  112  A    between atoms: _273  and  _274
REMARK  113  A    between atoms: _280  and  _282
REMARK  114  A    between atoms: _282  and  _283
REMARK  115  A    between atoms: _282  and  _285
REMARK  116  A    between atoms: _285  and  _286
REMARK  117  A    between atoms: _292  and  _294
REMARK  118  A    between atoms: _294  and  _295
REMARK  119  A    between atoms: _294  and  _297
REMARK  120  A    between atoms: _297  and  _298
REMARK  121  A    between atoms: _301  and  _303
REMARK  122  A    between atoms: _303  and  _304
REMARK  123  A    between atoms: _303  and  _306
REMARK  124  A    between atoms: _306  and  _307
REMARK  125  A    between atoms: _309  and  _311
REMARK  126  A    between atoms: _311  and  _312
REMARK  127  A    between atoms: _311  and  _314
REMARK  128  A    between atoms: _314  and  _315
REMARK  129  A    between atoms: _325  and  _327
REMARK  130  A    between atoms: _327  and  _328
REMARK  131  A    between atoms: _330  and  _332
REMARK  132  A    between atoms: _332  and  _333
REMARK  133  A    between atoms: _332  and  _335
REMARK  134  A    between atoms: _335  and  _336
REMARK  135  A    between atoms: _339  and  _341
REMARK  136  A    between atoms: _341  and  _342
REMARK  137  A    between atoms: _341  and  _344
REMARK  138  A    between atoms: _344  and  _345
REMARK  139  A    between atoms: _348  and  _350
REMARK  140  A    between atoms: _350  and  _351
REMARK  141  A    between atoms: _353  and  _355
REMARK  142  A    between atoms: _355  and  _356
REMARK  143  A    between atoms: _355  and  _358
REMARK  144  A    between atoms: _358  and  _359
REMARK  145  A    between atoms: _362  and  _364
REMARK  146  A    between atoms: _364  and  _365
REMARK  147  A    between atoms: _364  and  _367
REMARK  148  A    between atoms: _367  and  _368
REMARK  149  A    between atoms: _371  and  _373
REMARK  150  A    between atoms: _373  and  _374
REMARK  151  A    between atoms: _377  and  _379
REMARK  152  A    between atoms: _379  and  _380
REMARK  153  A    between atoms: _379  and  _382
REMARK  154  A    between atoms: _382  and  _383
REMARK  155  A    between atoms: _383  and  _384
REMARK  156  A    between atoms: _384  and  _385
REMARK  157  A    between atoms: _395  and  _396
REMARK  158  A    between atoms: _401  and  _403
REMARK  159  A    between atoms: _403  and  _404
REMARK  160  A    between atoms: _403  and  _406
REMARK  161  A    between atoms: _406  and  _407
REMARK  162  A    between atoms: _410  and  _412
REMARK  163  A    between atoms: _412  and  _413
REMARK  164  A    between atoms: _412  and  _415
REMARK  165  A    between atoms: _415  and  _416
REMARK  166  A    between atoms: _421  and  _422
REMARK  167  A    between atoms: _424  and  _426
REMARK  168  A    between atoms: _426  and  _427
REMARK  169  A    between atoms: _426  and  _429
REMARK  170  A    between atoms: _429  and  _430
REMARK  171  A    between atoms: _433  and  _435
REMARK  172  A    between atoms: _435  and  _436
REMARK  173  A    between atoms: _435  and  _438
REMARK  174  A    between atoms: _441  and  _443
REMARK  175  A    between atoms: _443  and  _444
REMARK  176  A    between atoms: _443  and  _446
REMARK  177  A    between atoms: _446  and  _447
REMARK  178  A    between atoms: _450  and  _452
REMARK  179  A    between atoms: _452  and  _453
REMARK  180  A    between atoms: _452  and  _455
REMARK  181  A    between atoms: _455  and  _456
REMARK  182  A    between atoms: _458  and  _460
REMARK  183  A    between atoms: _460  and  _461
REMARK  184  A    between atoms: _463  and  _465
REMARK  185  A    between atoms: _465  and  _466
REMARK  186  A    between atoms: _465  and  _468
REMARK  187  A    between atoms: _468  and  _469
REMARK  188  A    between atoms: _472  and  _474
REMARK  189  A    between atoms: _474  and  _475
REMARK  190  A    between atoms: _474  and  _477
REMARK  191  A    between atoms: _477  and  _478
REMARK  192  A    between atoms: _481  and  _483
REMARK  193  A    between atoms: _483  and  _484
REMARK  194  A    between atoms: _483  and  _486
REMARK  195  A    between atoms: _486  and  _487
REMARK  196  A    between atoms: _492  and  _494
REMARK  197  A    between atoms: _494  and  _495
REMARK  198  A    between atoms: _494  and  _497
REMARK  199  A    between atoms: _497  and  _498
REMARK  200  A    between atoms: _498  and  _499
REMARK  201  A    between atoms: _499  and  _500
REMARK  202  A    between atoms: _509  and  _511
REMARK  203  A    between atoms: _511  and  _512
REMARK  204  A    between atoms: _511  and  _514
REMARK  205  A    between atoms: _514  and  _515
REMARK  206  A    between atoms: _518  and  _520
REMARK  207  A    between atoms: _520  and  _521
REMARK  208  A    between atoms: _520  and  _523
REMARK  209  A    between atoms: _526  and  _528
REMARK  210  A    between atoms: _528  and  _529
REMARK  211  A    between atoms: _531  and  _533
REMARK  212  A    between atoms: _533  and  _534
REMARK  213  A    between atoms: _537  and  _539
REMARK  214  A    between atoms: _539  and  _540
REMARK  215  A    between atoms: _539  and  _542
REMARK                            x       y       z     vdW  Elec       q    Type
REMARK                         _______ _______ _______ _____ _____    ______ ____
ROOT
ATOM      1  O   HOH     1       9.518   9.787  25.172  0.00  0.00    +0.000 OA
ENDROOT
TORSDOF 0
REMARK  Name = ../refined-set-2016/4h3j/4h3j_pocket.pdb
REMARK  215 active torsions:
REMARK  status: ('A' for Active; 'I' for Inactive)
REMARK    1  A    between atoms: _1  and  _3
REMARK    2  A    between atoms: _3  and  _4
REMARK    3  A    between atoms: _3  and  _6
REMARK    4  A    between atoms: _6  and  _7
REMARK    5  A    between atoms: _7  and  _8
REMARK    6  A    between atoms: _8  and  _9
REMARK    7  A    between atoms: _9  and  _10
REMARK    8  A    between atoms: _14  and  _16
REMARK    9  A    between atoms: _16  and  _17
REMARK   10  A    between atoms: _16  and  _19
REMARK   11  A    between atoms: _19  and  _20
REMARK   12  A    between atoms: _22  and  _24
REMARK   13  A    between atoms: _24  and  _25
REMARK   14  A    between atoms: _27  and  _29
REMARK   15  A    between atoms: _29  and  _30
REMARK   16  A    between atoms: _29  and  _32
REMARK   17  A    between atoms: _32  and  _33
REMARK   18  A    between atoms: _33  and  _34
REMARK   19  A    between atoms: _39  and  _41
REMARK   20  A    between atoms: _41  and  _42
REMARK   21  A    between atoms: _44  and  _46
REMARK   22  A    between atoms: _46  and  _47
REMARK   23  A    between atoms: _46  and  _49
REMARK   24  A    between atoms: _49  and  _50
REMARK   25  A    between atoms: _55  and  _56
REMARK   26  A    between atoms: _58  and  _60
REMARK   27  A    between atoms: _60  and  _61
REMARK   28  A    between atoms: _60  and  _63
REMARK   29  A    between atoms: _63  and  _64
REMARK   30  A    between atoms: _67  and  _69
REMARK   31  A    between atoms: _69  and  _70
REMARK   32  A    between atoms: _69  and  _72
REMARK   33  A    between atoms: _75  and  _77
REMARK   34  A    between atoms: _77  and  _78
REMARK   35  A    between atoms: _77  and  _80
REMARK   36  A    between atoms: _80  and  _81
REMARK   37  A    between atoms: _84  and  _86
REMARK   38  A    between atoms: _86  and  _87
REMARK   39  A    between atoms: _86  and  _89
REMARK   40  A    between atoms: _89  and  _90
REMARK   41  A    between atoms: _93  and  _95
REMARK   42  A    between atoms: _95  and  _96
REMARK   43  A    between atoms: _98  and  _100
REMARK   44  A    between atoms: _100  and  _101
REMARK   45  A    between atoms: _100  and  _103
REMARK   46  A    between atoms: _103  and  _104
REMARK   47  A    between atoms: _106  and  _108
REMARK   48  A    between atoms: _108  and  _109
REMARK   49  A    between atoms: _108  and  _111
REMARK   50  A    between atoms: _111  and  _112
REMARK   51  A    between atoms: _114  and  _116
REMARK   52  A    between atoms: _116  and  _117
REMARK   53  A    between atoms: _116  and  _119
REMARK   54  A    between atoms: _119  and  _120
REMARK   55  A    between atoms: _125  and  _127
REMARK   56  A    between atoms: _127  and  _128
REMARK   57  A    between atoms: _127  and  _130
REMARK   58  A    between atoms: _130  and  _131
REMARK   59  A    between atoms: _137  and  _139
REMARK   60  A    between atoms: _139  and  _140
REMARK   61  A    between atoms: _143  and  _145
REMARK   62  A    between atoms: _145  and  _146
REMARK   63  A    between atoms: _145  and  _148
REMARK   64  A    between atoms: _151  and  _153
REMARK   65  A    between atoms: _153  and  _154
REMARK   66  A    between atoms: _153  and  _156
REMARK   67  A    between atoms: _156  and  _157
REMARK   68  A    between atoms: _162  and  _163
REMARK   69  A    between atoms: _165  and  _167
REMARK   70  A    between atoms: _167  and  _168
REMARK   71  A    between atoms: _167  and  _170
REMARK   72  A    between atoms: _174  and  _175
REMARK   73  A    between atoms: _180  and  _182
REMARK   74  A    between atoms: _182  and  _183
REMARK   75  A    between atoms: _182  and  _185
REMARK   76  A    between atoms: _185  and  _186
REMARK   77  A    between atoms: _191  and  _192
REMARK   78  A    between atoms: _194  and  _196
REMARK   79  A    between atoms: _196  and  _197
REMARK   80  A    between atoms: _196  and  _199
REMARK   81  A    between atoms: _199  and  _200
REMARK   82  A    between atoms: _203  and  _205
REMARK   83  A    between atoms: _205  and  _206
REMARK   84  A    between atoms: _205  and  _208
REMARK   85  A    between atoms: _208  and  _209
REMARK   86  A    between atoms: _209  and  _210
REMARK   87  A    between atoms: _215  and  _217
REMARK   88  A    between atoms: _217  and  _218
REMARK   89  A    between atoms: _220  and  _222
REMARK   90  A    between atoms: _222  and  _223
REMARK   91  A    between atoms: _222  and  _225
REMARK   92  A    between atoms: _225  and  _226
REMARK   93  A    between atoms: _226  and  _227
REMARK   94  A    between atoms: _227  and  _228
REMARK   95  A    between atoms: _228  and  _229
REMARK   96  A    between atoms: _233  and  _235
REMARK   97  A    between atoms: _235  and  _236
REMARK   98  A    between atoms: _235  and  _238
REMARK   99  A    between atoms: _238  and  _239
REMARK  100  A    between atoms: _249  and  _251
REMARK  101  A    between atoms: _251  and  _252
REMARK  102  A    between atoms: _255  and  _257
REMARK  103  A    between atoms: _257  and  _258
REMARK  104  A    between atoms: _257  and  _260
REMARK  105  A    between atoms: _260  and  _261
REMARK  106  A    between atoms: _261  and  _262
REMARK  107  A    between atoms: _262  and  _263
REMARK  108  A    between atoms: _263  and  _264
REMARK  109  A    between atoms: _268  and  _270
REMARK  110  A    between atoms: _270  and  _271
REMARK  111  A    between atoms: _270  and  _273
REMARK  112  A    between atoms: _273  and  _274
REMARK  113  A    between atoms: _280  and  _282
REMARK  114  A    between atoms: _282  and  _283
REMARK  115  A    between atoms: _282  and  _285
REMARK  116  A    between atoms: _285  and  _286
REMARK  117  A    between atoms: _292  and  _294
REMARK  118  A    between atoms: _294  and  _295
REMARK  119  A    between atoms: _294  and  _297
REMARK  120  A    between atoms: _297  and  _298
REMARK  121  A    between atoms: _301  and  _303
REMARK  122  A    between atoms: _303  and  _304
REMARK  123  A    between atoms: _303  and  _306
REMARK  124  A    between atoms: _306  and  _307
REMARK  125  A    between atoms: _309  and  _311
REMARK  126  A    between atoms: _311  and  _312
REMARK  127  A    between atoms: _311  and  _314
REMARK  128  A    between atoms: _314  and  _315
REMARK  129  A    between atoms: _325  and  _327
REMARK  130  A    between atoms: _327  and  _328
REMARK  131  A    between atoms: _330  and  _332
REMARK  132  A    between atoms: _332  and  _333
REMARK  133  A    between atoms: _332  and  _335
REMARK  134  A    between atoms: _335  and  _336
REMARK  135  A    between atoms: _339  and  _341
REMARK  136  A    between atoms: _341  and  _342
REMARK  137  A    between atoms: _341  and  _344
REMARK  138  A    between atoms: _344  and  _345
REMARK  139  A    between atoms: _348  and  _350
REMARK  140  A    between atoms: _350  and  _351
REMARK  141  A    between atoms: _353  and  _355
REMARK  142  A    between atoms: _355  and  _356
REMARK  143  A    between atoms: _355  and  _358
REMARK  144  A    between atoms: _358  and  _359
REMARK  145  A    between atoms: _362  and  _364
REMARK  146  A    between atoms: _364  and  _365
REMARK  147  A    between atoms: _364  and  _367
REMARK  148  A    between atoms: _367  and  _368
REMARK  149  A    between atoms: _371  and  _373
REMARK  150  A    between atoms: _373  and  _374
REMARK  151  A    between atoms: _377  and  _379
REMARK  152  A    between atoms: _379  and  _380
REMARK  153  A    between atoms: _379  and  _382
REMARK  154  A    between atoms: _382  and  _383
REMARK  155  A    between atoms: _383  and  _384
REMARK  156  A    between atoms: _384  and  _385
REMARK  157  A    between atoms: _395  and  _396
REMARK  158  A    between atoms: _401  and  _403
REMARK  159  A    between atoms: _403  and  _404
REMARK  160  A    between atoms: _403  and  _406
REMARK  161  A    between atoms: _406  and  _407
REMARK  162  A    between atoms: _410  and  _412
REMARK  163  A    between atoms: _412  and  _413
REMARK  164  A    between atoms: _412  and  _415
REMARK  165  A    between atoms: _415  and  _416
REMARK  166  A    between atoms: _421  and  _422
REMARK  167  A    between atoms: _424  and  _426
REMARK  168  A    between atoms: _426  and  _427
REMARK  169  A    between atoms: _426  and  _429
REMARK  170  A    between atoms: _429  and  _430
REMARK  171  A    between atoms: _433  and  _435
REMARK  172  A    between atoms: _435  and  _436
REMARK  173  A    between atoms: _435  and  _438
REMARK  174  A    between atoms: _441  and  _443
REMARK  175  A    between atoms: _443  and  _444
REMARK  176  A    between atoms: _443  and  _446
REMARK  177  A    between atoms: _446  and  _447
REMARK  178  A    between atoms: _450  and  _452
REMARK  179  A    between atoms: _452  and  _453
REMARK  180  A    between atoms: _452  and  _455
REMARK  181  A    between atoms: _455  and  _456
REMARK  182  A    between atoms: _458  and  _460
REMARK  183  A    between atoms: _460  and  _461
REMARK  184  A    between atoms: _463  and  _465
REMARK  185  A    between atoms: _465  and  _466
REMARK  186  A    between atoms: _465  and  _468
REMARK  187  A    between atoms: _468  and  _469
REMARK  188  A    between atoms: _472  and  _474
REMARK  189  A    between atoms: _474  and  _475
REMARK  190  A    between atoms: _474  and  _477
REMARK  191  A    between atoms: _477  and  _478
REMARK  192  A    between atoms: _481  and  _483
REMARK  193  A    between atoms: _483  and  _484
REMARK  194  A    between atoms: _483  and  _486
REMARK  195  A    between atoms: _486  and  _487
REMARK  196  A    between atoms: _492  and  _494
REMARK  197  A    between atoms: _494  and  _495
REMARK  198  A    between atoms: _494  and  _497
REMARK  199  A    between atoms: _497  and  _498
REMARK  200  A    between atoms: _498  and  _499
REMARK  201  A    between atoms: _499  and  _500
REMARK  202  A    between atoms: _509  and  _511
REMARK  203  A    between atoms: _511  and  _512
REMARK  204  A    between atoms: _511  and  _514
REMARK  205  A    between atoms: _514  and  _515
REMARK  206  A    between atoms: _518  and  _520
REMARK  207  A    between atoms: _520  and  _521
REMARK  208  A    between atoms: _520  and  _523
REMARK  209  A    between atoms: _526  and  _528
REMARK  210  A    between atoms: _528  and  _529
REMARK  211  A    between atoms: _531  and  _533
REMARK  212  A    between atoms: _533  and  _534
REMARK  213  A    between atoms: _537  and  _539
REMARK  214  A    between atoms: _539  and  _540
REMARK  215  A    between atoms: _539  and  _542
REMARK                            x       y       z     vdW  Elec       q    Type
REMARK                         _______ _______ _______ _____ _____    ______ ____
ROOT
ATOM      1  O   HOH     1      12.393   9.795  24.496  0.00  0.00    +0.000 OA
ENDROOT
TORSDOF 0
REMARK  Name = ../refined-set-2016/4h3j/4h3j_pocket.pdb
REMARK  215 active torsions:
REMARK  status: ('A' for Active; 'I' for Inactive)
REMARK    1  A    between atoms: _1  and  _3
REMARK    2  A    between atoms: _3  and  _4
REMARK    3  A    between atoms: _3  and  _6
REMARK    4  A    between atoms: _6  and  _7
REMARK    5  A    between atoms: _7  and  _8
REMARK    6  A    between atoms: _8  and  _9
REMARK    7  A    between atoms: _9  and  _10
REMARK    8  A    between atoms: _14  and  _16
REMARK    9  A    between atoms: _16  and  _17
REMARK   10  A    between atoms: _16  and  _19
REMARK   11  A    between atoms: _19  and  _20
REMARK   12  A    between atoms: _22  and  _24
REMARK   13  A    between atoms: _24  and  _25
REMARK   14  A    between atoms: _27  and  _29
REMARK   15  A    between atoms: _29  and  _30
REMARK   16  A    between atoms: _29  and  _32
REMARK   17  A    between atoms: _32  and  _33
REMARK   18  A    between atoms: _33  and  _34
REMARK   19  A    between atoms: _39  and  _41
REMARK   20  A    between atoms: _41  and  _42
REMARK   21  A    between atoms: _44  and  _46
REMARK   22  A    between atoms: _46  and  _47
REMARK   23  A    between atoms: _46  and  _49
REMARK   24  A    between atoms: _49  and  _50
REMARK   25  A    between atoms: _55  and  _56
REMARK   26  A    between atoms: _58  and  _60
REMARK   27  A    between atoms: _60  and  _61
REMARK   28  A    between atoms: _60  and  _63
REMARK   29  A    between atoms: _63  and  _64
REMARK   30  A    between atoms: _67  and  _69
REMARK   31  A    between atoms: _69  and  _70
REMARK   32  A    between atoms: _69  and  _72
REMARK   33  A    between atoms: _75  and  _77
REMARK   34  A    between atoms: _77  and  _78
REMARK   35  A    between atoms: _77  and  _80
REMARK   36  A    between atoms: _80  and  _81
REMARK   37  A    between atoms: _84  and  _86
REMARK   38  A    between atoms: _86  and  _87
REMARK   39  A    between atoms: _86  and  _89
REMARK   40  A    between atoms: _89  and  _90
REMARK   41  A    between atoms: _93  and  _95
REMARK   42  A    between atoms: _95  and  _96
REMARK   43  A    between atoms: _98  and  _100
REMARK   44  A    between atoms: _100  and  _101
REMARK   45  A    between atoms: _100  and  _103
REMARK   46  A    between atoms: _103  and  _104
REMARK   47  A    between atoms: _106  and  _108
REMARK   48  A    between atoms: _108  and  _109
REMARK   49  A    between atoms: _108  and  _111
REMARK   50  A    between atoms: _111  and  _112
REMARK   51  A    between atoms: _114  and  _116
REMARK   52  A    between atoms: _116  and  _117
REMARK   53  A    between atoms: _116  and  _119
REMARK   54  A    between atoms: _119  and  _120
REMARK   55  A    between atoms: _125  and  _127
REMARK   56  A    between atoms: _127  and  _128
REMARK   57  A    between atoms: _127  and  _130
REMARK   58  A    between atoms: _130  and  _131
REMARK   59  A    between atoms: _137  and  _139
REMARK   60  A    between atoms: _139  and  _140
REMARK   61  A    between atoms: _143  and  _145
REMARK   62  A    between atoms: _145  and  _146
REMARK   63  A    between atoms: _145  and  _148
REMARK   64  A    between atoms: _151  and  _153
REMARK   65  A    between atoms: _153  and  _154
REMARK   66  A    between atoms: _153  and  _156
REMARK   67  A    between atoms: _156  and  _157
REMARK   68  A    between atoms: _162  and  _163
REMARK   69  A    between atoms: _165  and  _167
REMARK   70  A    between atoms: _167  and  _168
REMARK   71  A    between atoms: _167  and  _170
REMARK   72  A    between atoms: _174  and  _175
REMARK   73  A    between atoms: _180  and  _182
REMARK   74  A    between atoms: _182  and  _183
REMARK   75  A    between atoms: _182  and  _185
REMARK   76  A    between atoms: _185  and  _186
REMARK   77  A    between atoms: _191  and  _192
REMARK   78  A    between atoms: _194  and  _196
REMARK   79  A    between atoms: _196  and  _197
REMARK   80  A    between atoms: _196  and  _199
REMARK   81  A    between atoms: _199  and  _200
REMARK   82  A    between atoms: _203  and  _205
REMARK   83  A    between atoms: _205  and  _206
REMARK   84  A    between atoms: _205  and  _208
REMARK   85  A    between atoms: _208  and  _209
REMARK   86  A    between atoms: _209  and  _210
REMARK   87  A    between atoms: _215  and  _217
REMARK   88  A    between atoms: _217  and  _218
REMARK   89  A    between atoms: _220  and  _222
REMARK   90  A    between atoms: _222  and  _223
REMARK   91  A    between atoms: _222  and  _225
REMARK   92  A    between atoms: _225  and  _226
REMARK   93  A    between atoms: _226  and  _227
REMARK   94  A    between atoms: _227  and  _228
REMARK   95  A    between atoms: _228  and  _229
REMARK   96  A    between atoms: _233  and  _235
REMARK   97  A    between atoms: _235  and  _236
REMARK   98  A    between atoms: _235  and  _238
REMARK   99  A    between atoms: _238  and  _239
REMARK  100  A    between atoms: _249  and  _251
REMARK  101  A    between atoms: _251  and  _252
REMARK  102  A    between atoms: _255  and  _257
REMARK  103  A    between atoms: _257  and  _258
REMARK  104  A    between atoms: _257  and  _260
REMARK  105  A    between atoms: _260  and  _261
REMARK  106  A    between atoms: _261  and  _262
REMARK  107  A    between atoms: _262  and  _263
REMARK  108  A    between atoms: _263  and  _264
REMARK  109  A    between atoms: _268  and  _270
REMARK  110  A    between atoms: _270  and  _271
REMARK  111  A    between atoms: _270  and  _273
REMARK  112  A    between atoms: _273  and  _274
REMARK  113  A    between atoms: _280  and  _282
REMARK  114  A    between atoms: _282  and  _283
REMARK  115  A    between atoms: _282  and  _285
REMARK  116  A    between atoms: _285  and  _286
REMARK  117  A    between atoms: _292  and  _294
REMARK  118  A    between atoms: _294  and  _295
REMARK  119  A    between atoms: _294  and  _297
REMARK  120  A    between atoms: _297  and  _298
REMARK  121  A    between atoms: _301  and  _303
REMARK  122  A    between atoms: _303  and  _304
REMARK  123  A    between atoms: _303  and  _306
REMARK  124  A    between atoms: _306  and  _307
REMARK  125  A    between atoms: _309  and  _311
REMARK  126  A    between atoms: _311  and  _312
REMARK  127  A    between atoms: _311  and  _314
REMARK  128  A    between atoms: _314  and  _315
REMARK  129  A    between atoms: _325  and  _327
REMARK  130  A    between atoms: _327  and  _328
REMARK  131  A    between atoms: _330  and  _332
REMARK  132  A    between atoms: _332  and  _333
REMARK  133  A    between atoms: _332  and  _335
REMARK  134  A    between atoms: _335  and  _336
REMARK  135  A    between atoms: _339  and  _341
REMARK  136  A    between atoms: _341  and  _342
REMARK  137  A    between atoms: _341  and  _344
REMARK  138  A    between atoms: _344  and  _345
REMARK  139  A    between atoms: _348  and  _350
REMARK  140  A    between atoms: _350  and  _351
REMARK  141  A    between atoms: _353  and  _355
REMARK  142  A    between atoms: _355  and  _356
REMARK  143  A    between atoms: _355  and  _358
REMARK  144  A    between atoms: _358  and  _359
REMARK  145  A    between atoms: _362  and  _364
REMARK  146  A    between atoms: _364  and  _365
REMARK  147  A    between atoms: _364  and  _367
REMARK  148  A    between atoms: _367  and  _368
REMARK  149  A    between atoms: _371  and  _373
REMARK  150  A    between atoms: _373  and  _374
REMARK  151  A    between atoms: _377  and  _379
REMARK  152  A    between atoms: _379  and  _380
REMARK  153  A    between atoms: _379  and  _382
REMARK  154  A    between atoms: _382  and  _383
REMARK  155  A    between atoms: _383  and  _384
REMARK  156  A    between atoms: _384  and  _385
REMARK  157  A    between atoms: _395  and  _396
REMARK  158  A    between atoms: _401  and  _403
REMARK  159  A    between atoms: _403  and  _404
REMARK  160  A    between atoms: _403  and  _406
REMARK  161  A    between atoms: _406  and  _407
REMARK  162  A    between atoms: _410  and  _412
REMARK  163  A    between atoms: _412  and  _413
REMARK  164  A    between atoms: _412  and  _415
REMARK  165  A    between atoms: _415  and  _416
REMARK  166  A    between atoms: _421  and  _422
REMARK  167  A    between atoms: _424  and  _426
REMARK  168  A    between atoms: _426  and  _427
REMARK  169  A    between atoms: _426  and  _429
REMARK  170  A    between atoms: _429  and  _430
REMARK  171  A    between atoms: _433  and  _435
REMARK  172  A    between atoms: _435  and  _436
REMARK  173  A    between atoms: _435  and  _438
REMARK  174  A    between atoms: _441  and  _443
REMARK  175  A    between atoms: _443  and  _444
REMARK  176  A    between atoms: _443  and  _446
REMARK  177  A    between atoms: _446  and  _447
REMARK  178  A    between atoms: _450  and  _452
REMARK  179  A    between atoms: _452  and  _453
REMARK  180  A    between atoms: _452  and  _455
REMARK  181  A    between atoms: _455  and  _456
REMARK  182  A    between atoms: _458  and  _460
REMARK  183  A    between atoms: _460  and  _461
REMARK  184  A    between atoms: _463  and  _465
REMARK  185  A    between atoms: _465  and  _466
REMARK  186  A    between atoms: _465  and  _468
REMARK  187  A    between atoms: _468  and  _469
REMARK  188  A    between atoms: _472  and  _474
REMARK  189  A    between atoms: _474  and  _475
REMARK  190  A    between atoms: _474  and  _477
REMARK  191  A    between atoms: _477  and  _478
REMARK  192  A    between atoms: _481  and  _483
REMARK  193  A    between atoms: _483  and  _484
REMARK  194  A    between atoms: _483  and  _486
REMARK  195  A    between atoms: _486  and  _487
REMARK  196  A    between atoms: _492  and  _494
REMARK  197  A    between atoms: _494  and  _495
REMARK  198  A    between atoms: _494  and  _497
REMARK  199  A    between atoms: _497  and  _498
REMARK  200  A    between atoms: _498  and  _499
REMARK  201  A    between atoms: _499  and  _500
REMARK  202  A    between atoms: _509  and  _511
REMARK  203  A    between atoms: _511  and  _512
REMARK  204  A    between atoms: _511  and  _514
REMARK  205  A    between atoms: _514  and  _515
REMARK  206  A    between atoms: _518  and  _520
REMARK  207  A    between atoms: _520  and  _521
REMARK  208  A    between atoms: _520  and  _523
REMARK  209  A    between atoms: _526  and  _528
REMARK  210  A    between atoms: _528  and  _529
REMARK  211  A    between atoms: _531  and  _533
REMARK  212  A    between atoms: _533  and  _534
REMARK  213  A    between atoms: _537  and  _539
REMARK  214  A    between atoms: _539  and  _540
REMARK  215  A    between atoms: _539  and  _542
REMARK                            x       y       z     vdW  Elec       q    Type
REMARK                         _______ _______ _______ _____ _____    ______ ____
ROOT
ATOM      1  O   HOH     1       8.995  11.170  18.454  0.00  0.00    +0.000 OA
ENDROOT
TORSDOF 0
REMARK  Name = ../refined-set-2016/4h3j/4h3j_pocket.pdb
REMARK  215 active torsions:
REMARK  status: ('A' for Active; 'I' for Inactive)
REMARK    1  A    between atoms: _1  and  _3
REMARK    2  A    between atoms: _3  and  _4
REMARK    3  A    between atoms: _3  and  _6
REMARK    4  A    between atoms: _6  and  _7
REMARK    5  A    between atoms: _7  and  _8
REMARK    6  A    between atoms: _8  and  _9
REMARK    7  A    between atoms: _9  and  _10
REMARK    8  A    between atoms: _14  and  _16
REMARK    9  A    between atoms: _16  and  _17
REMARK   10  A    between atoms: _16  and  _19
REMARK   11  A    between atoms: _19  and  _20
REMARK   12  A    between atoms: _22  and  _24
REMARK   13  A    between atoms: _24  and  _25
REMARK   14  A    between atoms: _27  and  _29
REMARK   15  A    between atoms: _29  and  _30
REMARK   16  A    between atoms: _29  and  _32
REMARK   17  A    between atoms: _32  and  _33
REMARK   18  A    between atoms: _33  and  _34
REMARK   19  A    between atoms: _39  and  _41
REMARK   20  A    between atoms: _41  and  _42
REMARK   21  A    between atoms: _44  and  _46
REMARK   22  A    between atoms: _46  and  _47
REMARK   23  A    between atoms: _46  and  _49
REMARK   24  A    between atoms: _49  and  _50
REMARK   25  A    between atoms: _55  and  _56
REMARK   26  A    between atoms: _58  and  _60
REMARK   27  A    between atoms: _60  and  _61
REMARK   28  A    between atoms: _60  and  _63
REMARK   29  A    between atoms: _63  and  _64
REMARK   30  A    between atoms: _67  and  _69
REMARK   31  A    between atoms: _69  and  _70
REMARK   32  A    between atoms: _69  and  _72
REMARK   33  A    between atoms: _75  and  _77
REMARK   34  A    between atoms: _77  and  _78
REMARK   35  A    between atoms: _77  and  _80
REMARK   36  A    between atoms: _80  and  _81
REMARK   37  A    between atoms: _84  and  _86
REMARK   38  A    between atoms: _86  and  _87
REMARK   39  A    between atoms: _86  and  _89
REMARK   40  A    between atoms: _89  and  _90
REMARK   41  A    between atoms: _93  and  _95
REMARK   42  A    between atoms: _95  and  _96
REMARK   43  A    between atoms: _98  and  _100
REMARK   44  A    between atoms: _100  and  _101
REMARK   45  A    between atoms: _100  and  _103
REMARK   46  A    between atoms: _103  and  _104
REMARK   47  A    between atoms: _106  and  _108
REMARK   48  A    between atoms: _108  and  _109
REMARK   49  A    between atoms: _108  and  _111
REMARK   50  A    between atoms: _111  and  _112
REMARK   51  A    between atoms: _114  and  _116
REMARK   52  A    between atoms: _116  and  _117
REMARK   53  A    between atoms: _116  and  _119
REMARK   54  A    between atoms: _119  and  _120
REMARK   55  A    between atoms: _125  and  _127
REMARK   56  A    between atoms: _127  and  _128
REMARK   57  A    between atoms: _127  and  _130
REMARK   58  A    between atoms: _130  and  _131
REMARK   59  A    between atoms: _137  and  _139
REMARK   60  A    between atoms: _139  and  _140
REMARK   61  A    between atoms: _143  and  _145
REMARK   62  A    between atoms: _145  and  _146
REMARK   63  A    between atoms: _145  and  _148
REMARK   64  A    between atoms: _151  and  _153
REMARK   65  A    between atoms: _153  and  _154
REMARK   66  A    between atoms: _153  and  _156
REMARK   67  A    between atoms: _156  and  _157
REMARK   68  A    between atoms: _162  and  _163
REMARK   69  A    between atoms: _165  and  _167
REMARK   70  A    between atoms: _167  and  _168
REMARK   71  A    between atoms: _167  and  _170
REMARK   72  A    between atoms: _174  and  _175
REMARK   73  A    between atoms: _180  and  _182
REMARK   74  A    between atoms: _182  and  _183
REMARK   75  A    between atoms: _182  and  _185
REMARK   76  A    between atoms: _185  and  _186
REMARK   77  A    between atoms: _191  and  _192
REMARK   78  A    between atoms: _194  and  _196
REMARK   79  A    between atoms: _196  and  _197
REMARK   80  A    between atoms: _196  and  _199
REMARK   81  A    between atoms: _199  and  _200
REMARK   82  A    between atoms: _203  and  _205
REMARK   83  A    between atoms: _205  and  _206
REMARK   84  A    between atoms: _205  and  _208
REMARK   85  A    between atoms: _208  and  _209
REMARK   86  A    between atoms: _209  and  _210
REMARK   87  A    between atoms: _215  and  _217
REMARK   88  A    between atoms: _217  and  _218
REMARK   89  A    between atoms: _220  and  _222
REMARK   90  A    between atoms: _222  and  _223
REMARK   91  A    between atoms: _222  and  _225
REMARK   92  A    between atoms: _225  and  _226
REMARK   93  A    between atoms: _226  and  _227
REMARK   94  A    between atoms: _227  and  _228
REMARK   95  A    between atoms: _228  and  _229
REMARK   96  A    between atoms: _233  and  _235
REMARK   97  A    between atoms: _235  and  _236
REMARK   98  A    between atoms: _235  and  _238
REMARK   99  A    between atoms: _238  and  _239
REMARK  100  A    between atoms: _249  and  _251
REMARK  101  A    between atoms: _251  and  _252
REMARK  102  A    between atoms: _255  and  _257
REMARK  103  A    between atoms: _257  and  _258
REMARK  104  A    between atoms: _257  and  _260
REMARK  105  A    between atoms: _260  and  _261
REMARK  106  A    between atoms: _261  and  _262
REMARK  107  A    between atoms: _262  and  _263
REMARK  108  A    between atoms: _263  and  _264
REMARK  109  A    between atoms: _268  and  _270
REMARK  110  A    between atoms: _270  and  _271
REMARK  111  A    between atoms: _270  and  _273
REMARK  112  A    between atoms: _273  and  _274
REMARK  113  A    between atoms: _280  and  _282
REMARK  114  A    between atoms: _282  and  _283
REMARK  115  A    between atoms: _282  and  _285
REMARK  116  A    between atoms: _285  and  _286
REMARK  117  A    between atoms: _292  and  _294
REMARK  118  A    between atoms: _294  and  _295
REMARK  119  A    between atoms: _294  and  _297
REMARK  120  A    between atoms: _297  and  _298
REMARK  121  A    between atoms: _301  and  _303
REMARK  122  A    between atoms: _303  and  _304
REMARK  123  A    between atoms: _303  and  _306
REMARK  124  A    between atoms: _306  and  _307
REMARK  125  A    between atoms: _309  and  _311
REMARK  126  A    between atoms: _311  and  _312
REMARK  127  A    between atoms: _311  and  _314
REMARK  128  A    between atoms: _314  and  _315
REMARK  129  A    between atoms: _325  and  _327
REMARK  130  A    between atoms: _327  and  _328
REMARK  131  A    between atoms: _330  and  _332
REMARK  132  A    between atoms: _332  and  _333
REMARK  133  A    between atoms: _332  and  _335
REMARK  134  A    between atoms: _335  and  _336
REMARK  135  A    between atoms: _339  and  _341
REMARK  136  A    between atoms: _341  and  _342
REMARK  137  A    between atoms: _341  and  _344
REMARK  138  A    between atoms: _344  and  _345
REMARK  139  A    between atoms: _348  and  _350
REMARK  140  A    between atoms: _350  and  _351
REMARK  141  A    between atoms: _353  and  _355
REMARK  142  A    between atoms: _355  and  _356
REMARK  143  A    between atoms: _355  and  _358
REMARK  144  A    between atoms: _358  and  _359
REMARK  145  A    between atoms: _362  and  _364
REMARK  146  A    between atoms: _364  and  _365
REMARK  147  A    between atoms: _364  and  _367
REMARK  148  A    between atoms: _367  and  _368
REMARK  149  A    between atoms: _371  and  _373
REMARK  150  A    between atoms: _373  and  _374
REMARK  151  A    between atoms: _377  and  _379
REMARK  152  A    between atoms: _379  and  _380
REMARK  153  A    between atoms: _379  and  _382
REMARK  154  A    between atoms: _382  and  _383
REMARK  155  A    between atoms: _383  and  _384
REMARK  156  A    between atoms: _384  and  _385
REMARK  157  A    between atoms: _395  and  _396
REMARK  158  A    between atoms: _401  and  _403
REMARK  159  A    between atoms: _403  and  _404
REMARK  160  A    between atoms: _403  and  _406
REMARK  161  A    between atoms: _406  and  _407
REMARK  162  A    between atoms: _410  and  _412
REMARK  163  A    between atoms: _412  and  _413
REMARK  164  A    between atoms: _412  and  _415
REMARK  165  A    between atoms: _415  and  _416
REMARK  166  A    between atoms: _421  and  _422
REMARK  167  A    between atoms: _424  and  _426
REMARK  168  A    between atoms: _426  and  _427
REMARK  169  A    between atoms: _426  and  _429
REMARK  170  A    between atoms: _429  and  _430
REMARK  171  A    between atoms: _433  and  _435
REMARK  172  A    between atoms: _435  and  _436
REMARK  173  A    between atoms: _435  and  _438
REMARK  174  A    between atoms: _441  and  _443
REMARK  175  A    between atoms: _443  and  _444
REMARK  176  A    between atoms: _443  and  _446
REMARK  177  A    between atoms: _446  and  _447
REMARK  178  A    between atoms: _450  and  _452
REMARK  179  A    between atoms: _452  and  _453
REMARK  180  A    between atoms: _452  and  _455
REMARK  181  A    between atoms: _455  and  _456
REMARK  182  A    between atoms: _458  and  _460
REMARK  183  A    between atoms: _460  and  _461
REMARK  184  A    between atoms: _463  and  _465
REMARK  185  A    between atoms: _465  and  _466
REMARK  186  A    between atoms: _465  and  _468
REMARK  187  A    between atoms: _468  and  _469
REMARK  188  A    between atoms: _472  and  _474
REMARK  189  A    between atoms: _474  and  _475
REMARK  190  A    between atoms: _474  and  _477
REMARK  191  A    between atoms: _477  and  _478
REMARK  192  A    between atoms: _481  and  _483
REMARK  193  A    between atoms: _483  and  _484
REMARK  194  A    between atoms: _483  and  _486
REMARK  195  A    between atoms: _486  and  _487
REMARK  196  A    between atoms: _492  and  _494
REMARK  197  A    between atoms: _494  and  _495
REMARK  198  A    between atoms: _494  and  _497
REMARK  199  A    between atoms: _497  and  _498
REMARK  200  A    between atoms: _498  and  _499
REMARK  201  A    between atoms: _499  and  _500
REMARK  202  A    between atoms: _509  and  _511
REMARK  203  A    between atoms: _511  and  _512
REMARK  204  A    between atoms: _511  and  _514
REMARK  205  A    between atoms: _514  and  _515
REMARK  206  A    between atoms: _518  and  _520
REMARK  207  A    between atoms: _520  and  _521
REMARK  208  A    between atoms: _520  and  _523
REMARK  209  A    between atoms: _526  and  _528
REMARK  210  A    between atoms: _528  and  _529
REMARK  211  A    between atoms: _531  and  _533
REMARK  212  A    between atoms: _533  and  _534
REMARK  213  A    between atoms: _537  and  _539
REMARK  214  A    between atoms: _539  and  _540
REMARK  215  A    between atoms: _539  and  _542
REMARK                            x       y       z     vdW  Elec       q    Type
REMARK                         _______ _______ _______ _____ _____    ______ ____
ROOT
ATOM      1  O   HOH     1      27.715  14.658  21.181  0.00  0.00    +0.000 OA
ENDROOT
TORSDOF 0
REMARK  Name = ../refined-set-2016/4h3j/4h3j_pocket.pdb
REMARK  215 active torsions:
REMARK  status: ('A' for Active; 'I' for Inactive)
REMARK    1  A    between atoms: _1  and  _3
REMARK    2  A    between atoms: _3  and  _4
REMARK    3  A    between atoms: _3  and  _6
REMARK    4  A    between atoms: _6  and  _7
REMARK    5  A    between atoms: _7  and  _8
REMARK    6  A    between atoms: _8  and  _9
REMARK    7  A    between atoms: _9  and  _10
REMARK    8  A    between atoms: _14  and  _16
REMARK    9  A    between atoms: _16  and  _17
REMARK   10  A    between atoms: _16  and  _19
REMARK   11  A    between atoms: _19  and  _20
REMARK   12  A    between atoms: _22  and  _24
REMARK   13  A    between atoms: _24  and  _25
REMARK   14  A    between atoms: _27  and  _29
REMARK   15  A    between atoms: _29  and  _30
REMARK   16  A    between atoms: _29  and  _32
REMARK   17  A    between atoms: _32  and  _33
REMARK   18  A    between atoms: _33  and  _34
REMARK   19  A    between atoms: _39  and  _41
REMARK   20  A    between atoms: _41  and  _42
REMARK   21  A    between atoms: _44  and  _46
REMARK   22  A    between atoms: _46  and  _47
REMARK   23  A    between atoms: _46  and  _49
REMARK   24  A    between atoms: _49  and  _50
REMARK   25  A    between atoms: _55  and  _56
REMARK   26  A    between atoms: _58  and  _60
REMARK   27  A    between atoms: _60  and  _61
REMARK   28  A    between atoms: _60  and  _63
REMARK   29  A    between atoms: _63  and  _64
REMARK   30  A    between atoms: _67  and  _69
REMARK   31  A    between atoms: _69  and  _70
REMARK   32  A    between atoms: _69  and  _72
REMARK   33  A    between atoms: _75  and  _77
REMARK   34  A    between atoms: _77  and  _78
REMARK   35  A    between atoms: _77  and  _80
REMARK   36  A    between atoms: _80  and  _81
REMARK   37  A    between atoms: _84  and  _86
REMARK   38  A    between atoms: _86  and  _87
REMARK   39  A    between atoms: _86  and  _89
REMARK   40  A    between atoms: _89  and  _90
REMARK   41  A    between atoms: _93  and  _95
REMARK   42  A    between atoms: _95  and  _96
REMARK   43  A    between atoms: _98  and  _100
REMARK   44  A    between atoms: _100  and  _101
REMARK   45  A    between atoms: _100  and  _103
REMARK   46  A    between atoms: _103  and  _104
REMARK   47  A    between atoms: _106  and  _108
REMARK   48  A    between atoms: _108  and  _109
REMARK   49  A    between atoms: _108  and  _111
REMARK   50  A    between atoms: _111  and  _112
REMARK   51  A    between atoms: _114  and  _116
REMARK   52  A    between atoms: _116  and  _117
REMARK   53  A    between atoms: _116  and  _119
REMARK   54  A    between atoms: _119  and  _120
REMARK   55  A    between atoms: _125  and  _127
REMARK   56  A    between atoms: _127  and  _128
REMARK   57  A    between atoms: _127  and  _130
REMARK   58  A    between atoms: _130  and  _131
REMARK   59  A    between atoms: _137  and  _139
REMARK   60  A    between atoms: _139  and  _140
REMARK   61  A    between atoms: _143  and  _145
REMARK   62  A    between atoms: _145  and  _146
REMARK   63  A    between atoms: _145  and  _148
REMARK   64  A    between atoms: _151  and  _153
REMARK   65  A    between atoms: _153  and  _154
REMARK   66  A    between atoms: _153  and  _156
REMARK   67  A    between atoms: _156  and  _157
REMARK   68  A    between atoms: _162  and  _163
REMARK   69  A    between atoms: _165  and  _167
REMARK   70  A    between atoms: _167  and  _168
REMARK   71  A    between atoms: _167  and  _170
REMARK   72  A    between atoms: _174  and  _175
REMARK   73  A    between atoms: _180  and  _182
REMARK   74  A    between atoms: _182  and  _183
REMARK   75  A    between atoms: _182  and  _185
REMARK   76  A    between atoms: _185  and  _186
REMARK   77  A    between atoms: _191  and  _192
REMARK   78  A    between atoms: _194  and  _196
REMARK   79  A    between atoms: _196  and  _197
REMARK   80  A    between atoms: _196  and  _199
REMARK   81  A    between atoms: _199  and  _200
REMARK   82  A    between atoms: _203  and  _205
REMARK   83  A    between atoms: _205  and  _206
REMARK   84  A    between atoms: _205  and  _208
REMARK   85  A    between atoms: _208  and  _209
REMARK   86  A    between atoms: _209  and  _210
REMARK   87  A    between atoms: _215  and  _217
REMARK   88  A    between atoms: _217  and  _218
REMARK   89  A    between atoms: _220  and  _222
REMARK   90  A    between atoms: _222  and  _223
REMARK   91  A    between atoms: _222  and  _225
REMARK   92  A    between atoms: _225  and  _226
REMARK   93  A    between atoms: _226  and  _227
REMARK   94  A    between atoms: _227  and  _228
REMARK   95  A    between atoms: _228  and  _229
REMARK   96  A    between atoms: _233  and  _235
REMARK   97  A    between atoms: _235  and  _236
REMARK   98  A    between atoms: _235  and  _238
REMARK   99  A    between atoms: _238  and  _239
REMARK  100  A    between atoms: _249  and  _251
REMARK  101  A    between atoms: _251  and  _252
REMARK  102  A    between atoms: _255  and  _257
REMARK  103  A    between atoms: _257  and  _258
REMARK  104  A    between atoms: _257  and  _260
REMARK  105  A    between atoms: _260  and  _261
REMARK  106  A    between atoms: _261  and  _262
REMARK  107  A    between atoms: _262  and  _263
REMARK  108  A    between atoms: _263  and  _264
REMARK  109  A    between atoms: _268  and  _270
REMARK  110  A    between atoms: _270  and  _271
REMARK  111  A    between atoms: _270  and  _273
REMARK  112  A    between atoms: _273  and  _274
REMARK  113  A    between atoms: _280  and  _282
REMARK  114  A    between atoms: _282  and  _283
REMARK  115  A    between atoms: _282  and  _285
REMARK  116  A    between atoms: _285  and  _286
REMARK  117  A    between atoms: _292  and  _294
REMARK  118  A    between atoms: _294  and  _295
REMARK  119  A    between atoms: _294  and  _297
REMARK  120  A    between atoms: _297  and  _298
REMARK  121  A    between atoms: _301  and  _303
REMARK  122  A    between atoms: _303  and  _304
REMARK  123  A    between atoms: _303  and  _306
REMARK  124  A    between atoms: _306  and  _307
REMARK  125  A    between atoms: _309  and  _311
REMARK  126  A    between atoms: _311  and  _312
REMARK  127  A    between atoms: _311  and  _314
REMARK  128  A    between atoms: _314  and  _315
REMARK  129  A    between atoms: _325  and  _327
REMARK  130  A    between atoms: _327  and  _328
REMARK  131  A    between atoms: _330  and  _332
REMARK  132  A    between atoms: _332  and  _333
REMARK  133  A    between atoms: _332  and  _335
REMARK  134  A    between atoms: _335  and  _336
REMARK  135  A    between atoms: _339  and  _341
REMARK  136  A    between atoms: _341  and  _342
REMARK  137  A    between atoms: _341  and  _344
REMARK  138  A    between atoms: _344  and  _345
REMARK  139  A    between atoms: _348  and  _350
REMARK  140  A    between atoms: _350  and  _351
REMARK  141  A    between atoms: _353  and  _355
REMARK  142  A    between atoms: _355  and  _356
REMARK  143  A    between atoms: _355  and  _358
REMARK  144  A    between atoms: _358  and  _359
REMARK  145  A    between atoms: _362  and  _364
REMARK  146  A    between atoms: _364  and  _365
REMARK  147  A    between atoms: _364  and  _367
REMARK  148  A    between atoms: _367  and  _368
REMARK  149  A    between atoms: _371  and  _373
REMARK  150  A    between atoms: _373  and  _374
REMARK  151  A    between atoms: _377  and  _379
REMARK  152  A    between atoms: _379  and  _380
REMARK  153  A    between atoms: _379  and  _382
REMARK  154  A    between atoms: _382  and  _383
REMARK  155  A    between atoms: _383  and  _384
REMARK  156  A    between atoms: _384  and  _385
REMARK  157  A    between atoms: _395  and  _396
REMARK  158  A    between atoms: _401  and  _403
REMARK  159  A    between atoms: _403  and  _404
REMARK  160  A    between atoms: _403  and  _406
REMARK  161  A    between atoms: _406  and  _407
REMARK  162  A    between atoms: _410  and  _412
REMARK  163  A    between atoms: _412  and  _413
REMARK  164  A    between atoms: _412  and  _415
REMARK  165  A    between atoms: _415  and  _416
REMARK  166  A    between atoms: _421  and  _422
REMARK  167  A    between atoms: _424  and  _426
REMARK  168  A    between atoms: _426  and  _427
REMARK  169  A    between atoms: _426  and  _429
REMARK  170  A    between atoms: _429  and  _430
REMARK  171  A    between atoms: _433  and  _435
REMARK  172  A    between atoms: _435  and  _436
REMARK  173  A    between atoms: _435  and  _438
REMARK  174  A    between atoms: _441  and  _443
REMARK  175  A    between atoms: _443  and  _444
REMARK  176  A    between atoms: _443  and  _446
REMARK  177  A    between atoms: _446  and  _447
REMARK  178  A    between atoms: _450  and  _452
REMARK  179  A    between atoms: _452  and  _453
REMARK  180  A    between atoms: _452  and  _455
REMARK  181  A    between atoms: _455  and  _456
REMARK  182  A    between atoms: _458  and  _460
REMARK  183  A    between atoms: _460  and  _461
REMARK  184  A    between atoms: _463  and  _465
REMARK  185  A    between atoms: _465  and  _466
REMARK  186  A    between atoms: _465  and  _468
REMARK  187  A    between atoms: _468  and  _469
REMARK  188  A    between atoms: _472  and  _474
REMARK  189  A    between atoms: _474  and  _475
REMARK  190  A    between atoms: _474  and  _477
REMARK  191  A    between atoms: _477  and  _478
REMARK  192  A    between atoms: _481  and  _483
REMARK  193  A    between atoms: _483  and  _484
REMARK  194  A    between atoms: _483  and  _486
REMARK  195  A    between atoms: _486  and  _487
REMARK  196  A    between atoms: _492  and  _494
REMARK  197  A    between atoms: _494  and  _495
REMARK  198  A    between atoms: _494  and  _497
REMARK  199  A    between atoms: _497  and  _498
REMARK  200  A    between atoms: _498  and  _499
REMARK  201  A    between atoms: _499  and  _500
REMARK  202  A    between atoms: _509  and  _511
REMARK  203  A    between atoms: _511  and  _512
REMARK  204  A    between atoms: _511  and  _514
REMARK  205  A    between atoms: _514  and  _515
REMARK  206  A    between atoms: _518  and  _520
REMARK  207  A    between atoms: _520  and  _521
REMARK  208  A    between atoms: _520  and  _523
REMARK  209  A    between atoms: _526  and  _528
REMARK  210  A    between atoms: _528  and  _529
REMARK  211  A    between atoms: _531  and  _533
REMARK  212  A    between atoms: _533  and  _534
REMARK  213  A    between atoms: _537  and  _539
REMARK  214  A    between atoms: _539  and  _540
REMARK  215  A    between atoms: _539  and  _542
REMARK                            x       y       z     vdW  Elec       q    Type
REMARK                         _______ _______ _______ _____ _____    ______ ____
ROOT
ATOM      1  O   HOH     1      34.776  12.755  14.729  0.00  0.00    +0.000 OA
ENDROOT
TORSDOF 0
REMARK  Name = ../refined-set-2016/4h3j/4h3j_pocket.pdb
REMARK  215 active torsions:
REMARK  status: ('A' for Active; 'I' for Inactive)
REMARK    1  A    between atoms: _1  and  _3
REMARK    2  A    between atoms: _3  and  _4
REMARK    3  A    between atoms: _3  and  _6
REMARK    4  A    between atoms: _6  and  _7
REMARK    5  A    between atoms: _7  and  _8
REMARK    6  A    between atoms: _8  and  _9
REMARK    7  A    between atoms: _9  and  _10
REMARK    8  A    between atoms: _14  and  _16
REMARK    9  A    between atoms: _16  and  _17
REMARK   10  A    between atoms: _16  and  _19
REMARK   11  A    between atoms: _19  and  _20
REMARK   12  A    between atoms: _22  and  _24
REMARK   13  A    between atoms: _24  and  _25
REMARK   14  A    between atoms: _27  and  _29
REMARK   15  A    between atoms: _29  and  _30
REMARK   16  A    between atoms: _29  and  _32
REMARK   17  A    between atoms: _32  and  _33
REMARK   18  A    between atoms: _33  and  _34
REMARK   19  A    between atoms: _39  and  _41
REMARK   20  A    between atoms: _41  and  _42
REMARK   21  A    between atoms: _44  and  _46
REMARK   22  A    between atoms: _46  and  _47
REMARK   23  A    between atoms: _46  and  _49
REMARK   24  A    between atoms: _49  and  _50
REMARK   25  A    between atoms: _55  and  _56
REMARK   26  A    between atoms: _58  and  _60
REMARK   27  A    between atoms: _60  and  _61
REMARK   28  A    between atoms: _60  and  _63
REMARK   29  A    between atoms: _63  and  _64
REMARK   30  A    between atoms: _67  and  _69
REMARK   31  A    between atoms: _69  and  _70
REMARK   32  A    between atoms: _69  and  _72
REMARK   33  A    between atoms: _75  and  _77
REMARK   34  A    between atoms: _77  and  _78
REMARK   35  A    between atoms: _77  and  _80
REMARK   36  A    between atoms: _80  and  _81
REMARK   37  A    between atoms: _84  and  _86
REMARK   38  A    between atoms: _86  and  _87
REMARK   39  A    between atoms: _86  and  _89
REMARK   40  A    between atoms: _89  and  _90
REMARK   41  A    between atoms: _93  and  _95
REMARK   42  A    between atoms: _95  and  _96
REMARK   43  A    between atoms: _98  and  _100
REMARK   44  A    between atoms: _100  and  _101
REMARK   45  A    between atoms: _100  and  _103
REMARK   46  A    between atoms: _103  and  _104
REMARK   47  A    between atoms: _106  and  _108
REMARK   48  A    between atoms: _108  and  _109
REMARK   49  A    between atoms: _108  and  _111
REMARK   50  A    between atoms: _111  and  _112
REMARK   51  A    between atoms: _114  and  _116
REMARK   52  A    between atoms: _116  and  _117
REMARK   53  A    between atoms: _116  and  _119
REMARK   54  A    between atoms: _119  and  _120
REMARK   55  A    between atoms: _125  and  _127
REMARK   56  A    between atoms: _127  and  _128
REMARK   57  A    between atoms: _127  and  _130
REMARK   58  A    between atoms: _130  and  _131
REMARK   59  A    between atoms: _137  and  _139
REMARK   60  A    between atoms: _139  and  _140
REMARK   61  A    between atoms: _143  and  _145
REMARK   62  A    between atoms: _145  and  _146
REMARK   63  A    between atoms: _145  and  _148
REMARK   64  A    between atoms: _151  and  _153
REMARK   65  A    between atoms: _153  and  _154
REMARK   66  A    between atoms: _153  and  _156
REMARK   67  A    between atoms: _156  and  _157
REMARK   68  A    between atoms: _162  and  _163
REMARK   69  A    between atoms: _165  and  _167
REMARK   70  A    between atoms: _167  and  _168
REMARK   71  A    between atoms: _167  and  _170
REMARK   72  A    between atoms: _174  and  _175
REMARK   73  A    between atoms: _180  and  _182
REMARK   74  A    between atoms: _182  and  _183
REMARK   75  A    between atoms: _182  and  _185
REMARK   76  A    between atoms: _185  and  _186
REMARK   77  A    between atoms: _191  and  _192
REMARK   78  A    between atoms: _194  and  _196
REMARK   79  A    between atoms: _196  and  _197
REMARK   80  A    between atoms: _196  and  _199
REMARK   81  A    between atoms: _199  and  _200
REMARK   82  A    between atoms: _203  and  _205
REMARK   83  A    between atoms: _205  and  _206
REMARK   84  A    between atoms: _205  and  _208
REMARK   85  A    between atoms: _208  and  _209
REMARK   86  A    between atoms: _209  and  _210
REMARK   87  A    between atoms: _215  and  _217
REMARK   88  A    between atoms: _217  and  _218
REMARK   89  A    between atoms: _220  and  _222
REMARK   90  A    between atoms: _222  and  _223
REMARK   91  A    between atoms: _222  and  _225
REMARK   92  A    between atoms: _225  and  _226
REMARK   93  A    between atoms: _226  and  _227
REMARK   94  A    between atoms: _227  and  _228
REMARK   95  A    between atoms: _228  and  _229
REMARK   96  A    between atoms: _233  and  _235
REMARK   97  A    between atoms: _235  and  _236
REMARK   98  A    between atoms: _235  and  _238
REMARK   99  A    between atoms: _238  and  _239
REMARK  100  A    between atoms: _249  and  _251
REMARK  101  A    between atoms: _251  and  _252
REMARK  102  A    between atoms: _255  and  _257
REMARK  103  A    between atoms: _257  and  _258
REMARK  104  A    between atoms: _257  and  _260
REMARK  105  A    between atoms: _260  and  _261
REMARK  106  A    between atoms: _261  and  _262
REMARK  107  A    between atoms: _262  and  _263
REMARK  108  A    between atoms: _263  and  _264
REMARK  109  A    between atoms: _268  and  _270
REMARK  110  A    between atoms: _270  and  _271
REMARK  111  A    between atoms: _270  and  _273
REMARK  112  A    between atoms: _273  and  _274
REMARK  113  A    between atoms: _280  and  _282
REMARK  114  A    between atoms: _282  and  _283
REMARK  115  A    between atoms: _282  and  _285
REMARK  116  A    between atoms: _285  and  _286
REMARK  117  A    between atoms: _292  and  _294
REMARK  118  A    between atoms: _294  and  _295
REMARK  119  A    between atoms: _294  and  _297
REMARK  120  A    between atoms: _297  and  _298
REMARK  121  A    between atoms: _301  and  _303
REMARK  122  A    between atoms: _303  and  _304
REMARK  123  A    between atoms: _303  and  _306
REMARK  124  A    between atoms: _306  and  _307
REMARK  125  A    between atoms: _309  and  _311
REMARK  126  A    between atoms: _311  and  _312
REMARK  127  A    between atoms: _311  and  _314
REMARK  128  A    between atoms: _314  and  _315
REMARK  129  A    between atoms: _325  and  _327
REMARK  130  A    between atoms: _327  and  _328
REMARK  131  A    between atoms: _330  and  _332
REMARK  132  A    between atoms: _332  and  _333
REMARK  133  A    between atoms: _332  and  _335
REMARK  134  A    between atoms: _335  and  _336
REMARK  135  A    between atoms: _339  and  _341
REMARK  136  A    between atoms: _341  and  _342
REMARK  137  A    between atoms: _341  and  _344
REMARK  138  A    between atoms: _344  and  _345
REMARK  139  A    between atoms: _348  and  _350
REMARK  140  A    between atoms: _350  and  _351
REMARK  141  A    between atoms: _353  and  _355
REMARK  142  A    between atoms: _355  and  _356
REMARK  143  A    between atoms: _355  and  _358
REMARK  144  A    between atoms: _358  and  _359
REMARK  145  A    between atoms: _362  and  _364
REMARK  146  A    between atoms: _364  and  _365
REMARK  147  A    between atoms: _364  and  _367
REMARK  148  A    between atoms: _367  and  _368
REMARK  149  A    between atoms: _371  and  _373
REMARK  150  A    between atoms: _373  and  _374
REMARK  151  A    between atoms: _377  and  _379
REMARK  152  A    between atoms: _379  and  _380
REMARK  153  A    between atoms: _379  and  _382
REMARK  154  A    between atoms: _382  and  _383
REMARK  155  A    between atoms: _383  and  _384
REMARK  156  A    between atoms: _384  and  _385
REMARK  157  A    between atoms: _395  and  _396
REMARK  158  A    between atoms: _401  and  _403
REMARK  159  A    between atoms: _403  and  _404
REMARK  160  A    between atoms: _403  and  _406
REMARK  161  A    between atoms: _406  and  _407
REMARK  162  A    between atoms: _410  and  _412
REMARK  163  A    between atoms: _412  and  _413
REMARK  164  A    between atoms: _412  and  _415
REMARK  165  A    between atoms: _415  and  _416
REMARK  166  A    between atoms: _421  and  _422
REMARK  167  A    between atoms: _424  and  _426
REMARK  168  A    between atoms: _426  and  _427
REMARK  169  A    between atoms: _426  and  _429
REMARK  170  A    between atoms: _429  and  _430
REMARK  171  A    between atoms: _433  and  _435
REMARK  172  A    between atoms: _435  and  _436
REMARK  173  A    between atoms: _435  and  _438
REMARK  174  A    between atoms: _441  and  _443
REMARK  175  A    between atoms: _443  and  _444
REMARK  176  A    between atoms: _443  and  _446
REMARK  177  A    between atoms: _446  and  _447
REMARK  178  A    between atoms: _450  and  _452
REMARK  179  A    between atoms: _452  and  _453
REMARK  180  A    between atoms: _452  and  _455
REMARK  181  A    between atoms: _455  and  _456
REMARK  182  A    between atoms: _458  and  _460
REMARK  183  A    between atoms: _460  and  _461
REMARK  184  A    between atoms: _463  and  _465
REMARK  185  A    between atoms: _465  and  _466
REMARK  186  A    between atoms: _465  and  _468
REMARK  187  A    between atoms: _468  and  _469
REMARK  188  A    between atoms: _472  and  _474
REMARK  189  A    between atoms: _474  and  _475
REMARK  190  A    between atoms: _474  and  _477
REMARK  191  A    between atoms: _477  and  _478
REMARK  192  A    between atoms: _481  and  _483
REMARK  193  A    between atoms: _483  and  _484
REMARK  194  A    between atoms: _483  and  _486
REMARK  195  A    between atoms: _486  and  _487
REMARK  196  A    between atoms: _492  and  _494
REMARK  197  A    between atoms: _494  and  _495
REMARK  198  A    between atoms: _494  and  _497
REMARK  199  A    between atoms: _497  and  _498
REMARK  200  A    between atoms: _498  and  _499
REMARK  201  A    between atoms: _499  and  _500
REMARK  202  A    between atoms: _509  and  _511
REMARK  203  A    between atoms: _511  and  _512
REMARK  204  A    between atoms: _511  and  _514
REMARK  205  A    between atoms: _514  and  _515
REMARK  206  A    between atoms: _518  and  _520
REMARK  207  A    between atoms: _520  and  _521
REMARK  208  A    between atoms: _520  and  _523
REMARK  209  A    between atoms: _526  and  _528
REMARK  210  A    between atoms: _528  and  _529
REMARK  211  A    between atoms: _531  and  _533
REMARK  212  A    between atoms: _533  and  _534
REMARK  213  A    between atoms: _537  and  _539
REMARK  214  A    between atoms: _539  and  _540
REMARK  215  A    between atoms: _539  and  _542
REMARK                            x       y       z     vdW  Elec       q    Type
REMARK                         _______ _______ _______ _____ _____    ______ ____
ROOT
ATOM      1  O   HOH     1      33.568   7.361  14.969  0.00  0.00    +0.000 OA
ENDROOT
TORSDOF 0
REMARK  Name = ../refined-set-2016/4h3j/4h3j_pocket.pdb
REMARK  215 active torsions:
REMARK  status: ('A' for Active; 'I' for Inactive)
REMARK    1  A    between atoms: _1  and  _3
REMARK    2  A    between atoms: _3  and  _4
REMARK    3  A    between atoms: _3  and  _6
REMARK    4  A    between atoms: _6  and  _7
REMARK    5  A    between atoms: _7  and  _8
REMARK    6  A    between atoms: _8  and  _9
REMARK    7  A    between atoms: _9  and  _10
REMARK    8  A    between atoms: _14  and  _16
REMARK    9  A    between atoms: _16  and  _17
REMARK   10  A    between atoms: _16  and  _19
REMARK   11  A    between atoms: _19  and  _20
REMARK   12  A    between atoms: _22  and  _24
REMARK   13  A    between atoms: _24  and  _25
REMARK   14  A    between atoms: _27  and  _29
REMARK   15  A    between atoms: _29  and  _30
REMARK   16  A    between atoms: _29  and  _32
REMARK   17  A    between atoms: _32  and  _33
REMARK   18  A    between atoms: _33  and  _34
REMARK   19  A    between atoms: _39  and  _41
REMARK   20  A    between atoms: _41  and  _42
REMARK   21  A    between atoms: _44  and  _46
REMARK   22  A    between atoms: _46  and  _47
REMARK   23  A    between atoms: _46  and  _49
REMARK   24  A    between atoms: _49  and  _50
REMARK   25  A    between atoms: _55  and  _56
REMARK   26  A    between atoms: _58  and  _60
REMARK   27  A    between atoms: _60  and  _61
REMARK   28  A    between atoms: _60  and  _63
REMARK   29  A    between atoms: _63  and  _64
REMARK   30  A    between atoms: _67  and  _69
REMARK   31  A    between atoms: _69  and  _70
REMARK   32  A    between atoms: _69  and  _72
REMARK   33  A    between atoms: _75  and  _77
REMARK   34  A    between atoms: _77  and  _78
REMARK   35  A    between atoms: _77  and  _80
REMARK   36  A    between atoms: _80  and  _81
REMARK   37  A    between atoms: _84  and  _86
REMARK   38  A    between atoms: _86  and  _87
REMARK   39  A    between atoms: _86  and  _89
REMARK   40  A    between atoms: _89  and  _90
REMARK   41  A    between atoms: _93  and  _95
REMARK   42  A    between atoms: _95  and  _96
REMARK   43  A    between atoms: _98  and  _100
REMARK   44  A    between atoms: _100  and  _101
REMARK   45  A    between atoms: _100  and  _103
REMARK   46  A    between atoms: _103  and  _104
REMARK   47  A    between atoms: _106  and  _108
REMARK   48  A    between atoms: _108  and  _109
REMARK   49  A    between atoms: _108  and  _111
REMARK   50  A    between atoms: _111  and  _112
REMARK   51  A    between atoms: _114  and  _116
REMARK   52  A    between atoms: _116  and  _117
REMARK   53  A    between atoms: _116  and  _119
REMARK   54  A    between atoms: _119  and  _120
REMARK   55  A    between atoms: _125  and  _127
REMARK   56  A    between atoms: _127  and  _128
REMARK   57  A    between atoms: _127  and  _130
REMARK   58  A    between atoms: _130  and  _131
REMARK   59  A    between atoms: _137  and  _139
REMARK   60  A    between atoms: _139  and  _140
REMARK   61  A    between atoms: _143  and  _145
REMARK   62  A    between atoms: _145  and  _146
REMARK   63  A    between atoms: _145  and  _148
REMARK   64  A    between atoms: _151  and  _153
REMARK   65  A    between atoms: _153  and  _154
REMARK   66  A    between atoms: _153  and  _156
REMARK   67  A    between atoms: _156  and  _157
REMARK   68  A    between atoms: _162  and  _163
REMARK   69  A    between atoms: _165  and  _167
REMARK   70  A    between atoms: _167  and  _168
REMARK   71  A    between atoms: _167  and  _170
REMARK   72  A    between atoms: _174  and  _175
REMARK   73  A    between atoms: _180  and  _182
REMARK   74  A    between atoms: _182  and  _183
REMARK   75  A    between atoms: _182  and  _185
REMARK   76  A    between atoms: _185  and  _186
REMARK   77  A    between atoms: _191  and  _192
REMARK   78  A    between atoms: _194  and  _196
REMARK   79  A    between atoms: _196  and  _197
REMARK   80  A    between atoms: _196  and  _199
REMARK   81  A    between atoms: _199  and  _200
REMARK   82  A    between atoms: _203  and  _205
REMARK   83  A    between atoms: _205  and  _206
REMARK   84  A    between atoms: _205  and  _208
REMARK   85  A    between atoms: _208  and  _209
REMARK   86  A    between atoms: _209  and  _210
REMARK   87  A    between atoms: _215  and  _217
REMARK   88  A    between atoms: _217  and  _218
REMARK   89  A    between atoms: _220  and  _222
REMARK   90  A    between atoms: _222  and  _223
REMARK   91  A    between atoms: _222  and  _225
REMARK   92  A    between atoms: _225  and  _226
REMARK   93  A    between atoms: _226  and  _227
REMARK   94  A    between atoms: _227  and  _228
REMARK   95  A    between atoms: _228  and  _229
REMARK   96  A    between atoms: _233  and  _235
REMARK   97  A    between atoms: _235  and  _236
REMARK   98  A    between atoms: _235  and  _238
REMARK   99  A    between atoms: _238  and  _239
REMARK  100  A    between atoms: _249  and  _251
REMARK  101  A    between atoms: _251  and  _252
REMARK  102  A    between atoms: _255  and  _257
REMARK  103  A    between atoms: _257  and  _258
REMARK  104  A    between atoms: _257  and  _260
REMARK  105  A    between atoms: _260  and  _261
REMARK  106  A    between atoms: _261  and  _262
REMARK  107  A    between atoms: _262  and  _263
REMARK  108  A    between atoms: _263  and  _264
REMARK  109  A    between atoms: _268  and  _270
REMARK  110  A    between atoms: _270  and  _271
REMARK  111  A    between atoms: _270  and  _273
REMARK  112  A    between atoms: _273  and  _274
REMARK  113  A    between atoms: _280  and  _282
REMARK  114  A    between atoms: _282  and  _283
REMARK  115  A    between atoms: _282  and  _285
REMARK  116  A    between atoms: _285  and  _286
REMARK  117  A    between atoms: _292  and  _294
REMARK  118  A    between atoms: _294  and  _295
REMARK  119  A    between atoms: _294  and  _297
REMARK  120  A    between atoms: _297  and  _298
REMARK  121  A    between atoms: _301  and  _303
REMARK  122  A    between atoms: _303  and  _304
REMARK  123  A    between atoms: _303  and  _306
REMARK  124  A    between atoms: _306  and  _307
REMARK  125  A    between atoms: _309  and  _311
REMARK  126  A    between atoms: _311  and  _312
REMARK  127  A    between atoms: _311  and  _314
REMARK  128  A    between atoms: _314  and  _315
REMARK  129  A    between atoms: _325  and  _327
REMARK  130  A    between atoms: _327  and  _328
REMARK  131  A    between atoms: _330  and  _332
REMARK  132  A    between atoms: _332  and  _333
REMARK  133  A    between atoms: _332  and  _335
REMARK  134  A    between atoms: _335  and  _336
REMARK  135  A    between atoms: _339  and  _341
REMARK  136  A    between atoms: _341  and  _342
REMARK  137  A    between atoms: _341  and  _344
REMARK  138  A    between atoms: _344  and  _345
REMARK  139  A    between atoms: _348  and  _350
REMARK  140  A    between atoms: _350  and  _351
REMARK  141  A    between atoms: _353  and  _355
REMARK  142  A    between atoms: _355  and  _356
REMARK  143  A    between atoms: _355  and  _358
REMARK  144  A    between atoms: _358  and  _359
REMARK  145  A    between atoms: _362  and  _364
REMARK  146  A    between atoms: _364  and  _365
REMARK  147  A    between atoms: _364  and  _367
REMARK  148  A    between atoms: _367  and  _368
REMARK  149  A    between atoms: _371  and  _373
REMARK  150  A    between atoms: _373  and  _374
REMARK  151  A    between atoms: _377  and  _379
REMARK  152  A    between atoms: _379  and  _380
REMARK  153  A    between atoms: _379  and  _382
REMARK  154  A    between atoms: _382  and  _383
REMARK  155  A    between atoms: _383  and  _384
REMARK  156  A    between atoms: _384  and  _385
REMARK  157  A    between atoms: _395  and  _396
REMARK  158  A    between atoms: _401  and  _403
REMARK  159  A    between atoms: _403  and  _404
REMARK  160  A    between atoms: _403  and  _406
REMARK  161  A    between atoms: _406  and  _407
REMARK  162  A    between atoms: _410  and  _412
REMARK  163  A    between atoms: _412  and  _413
REMARK  164  A    between atoms: _412  and  _415
REMARK  165  A    between atoms: _415  and  _416
REMARK  166  A    between atoms: _421  and  _422
REMARK  167  A    between atoms: _424  and  _426
REMARK  168  A    between atoms: _426  and  _427
REMARK  169  A    between atoms: _426  and  _429
REMARK  170  A    between atoms: _429  and  _430
REMARK  171  A    between atoms: _433  and  _435
REMARK  172  A    between atoms: _435  and  _436
REMARK  173  A    between atoms: _435  and  _438
REMARK  174  A    between atoms: _441  and  _443
REMARK  175  A    between atoms: _443  and  _444
REMARK  176  A    between atoms: _443  and  _446
REMARK  177  A    between atoms: _446  and  _447
REMARK  178  A    between atoms: _450  and  _452
REMARK  179  A    between atoms: _452  and  _453
REMARK  180  A    between atoms: _452  and  _455
REMARK  181  A    between atoms: _455  and  _456
REMARK  182  A    between atoms: _458  and  _460
REMARK  183  A    between atoms: _460  and  _461
REMARK  184  A    between atoms: _463  and  _465
REMARK  185  A    between atoms: _465  and  _466
REMARK  186  A    between atoms: _465  and  _468
REMARK  187  A    between atoms: _468  and  _469
REMARK  188  A    between atoms: _472  and  _474
REMARK  189  A    between atoms: _474  and  _475
REMARK  190  A    between atoms: _474  and  _477
REMARK  191  A    between atoms: _477  and  _478
REMARK  192  A    between atoms: _481  and  _483
REMARK  193  A    between atoms: _483  and  _484
REMARK  194  A    between atoms: _483  and  _486
REMARK  195  A    between atoms: _486  and  _487
REMARK  196  A    between atoms: _492  and  _494
REMARK  197  A    between atoms: _494  and  _495
REMARK  198  A    between atoms: _494  and  _497
REMARK  199  A    between atoms: _497  and  _498
REMARK  200  A    between atoms: _498  and  _499
REMARK  201  A    between atoms: _499  and  _500
REMARK  202  A    between atoms: _509  and  _511
REMARK  203  A    between atoms: _511  and  _512
REMARK  204  A    between atoms: _511  and  _514
REMARK  205  A    between atoms: _514  and  _515
REMARK  206  A    between atoms: _518  and  _520
REMARK  207  A    between atoms: _520  and  _521
REMARK  208  A    between atoms: _520  and  _523
REMARK  209  A    between atoms: _526  and  _528
REMARK  210  A    between atoms: _528  and  _529
REMARK  211  A    between atoms: _531  and  _533
REMARK  212  A    between atoms: _533  and  _534
REMARK  213  A    between atoms: _537  and  _539
REMARK  214  A    between atoms: _539  and  _540
REMARK  215  A    between atoms: _539  and  _542
REMARK                            x       y       z     vdW  Elec       q    Type
REMARK                         _______ _______ _______ _____ _____    ______ ____
ROOT
ATOM      1  O   HOH     1      27.857  18.439  15.203  0.00  0.00    +0.000 OA
ENDROOT
TORSDOF 0
