REMARK  Name = ../refined-set-2016/1flr/1flr_pocket.pdb
REMARK  155 active torsions:
REMARK  status: ('A' for Active; 'I' for Inactive)
REMARK    1  A    between atoms: _1  and  _3
REMARK    2  A    between atoms: _3  and  _4
REMARK    3  A    between atoms: _3  and  _6
REMARK    4  A    between atoms: _6  and  _7
REMARK    5  A    between atoms: _12  and  _14
REMARK    6  A    between atoms: _14  and  _15
REMARK    7  A    between atoms: _14  and  _17
REMARK    8  A    between atoms: _17  and  _18
REMARK    9  A    between atoms: _20  and  _22
REMARK   10  A    between atoms: _22  and  _23
REMARK   11  A    between atoms: _22  and  _25
REMARK   12  A    between atoms: _25  and  _26
REMARK   13  A    between atoms: _31  and  _33
REMARK   14  A    between atoms: _33  and  _34
REMARK   15  A    between atoms: _33  and  _36
REMARK   16  A    between atoms: _36  and  _37
REMARK   17  A    between atoms: _42  and  _44
REMARK   18  A    between atoms: _44  and  _45
REMARK   19  A    between atoms: _44  and  _47
REMARK   20  A    between atoms: _47  and  _48
REMARK   21  A    between atoms: _51  and  _53
REMARK   22  A    between atoms: _53  and  _54
REMARK   23  A    between atoms: _53  and  _56
REMARK   24  A    between atoms: _56  and  _57
REMARK   25  A    between atoms: _62  and  _63
REMARK   26  A    between atoms: _65  and  _67
REMARK   27  A    between atoms: _67  and  _68
REMARK   28  A    between atoms: _67  and  _70
REMARK   29  A    between atoms: _70  and  _71
REMARK   30  A    between atoms: _74  and  _76
REMARK   31  A    between atoms: _76  and  _77
REMARK   32  A    between atoms: _76  and  _79
REMARK   33  A    between atoms: _80  and  _81
REMARK   34  A    between atoms: _81  and  _82
REMARK   35  A    between atoms: _91  and  _93
REMARK   36  A    between atoms: _93  and  _94
REMARK   37  A    between atoms: _93  and  _96
REMARK   38  A    between atoms: _96  and  _97
REMARK   39  A    between atoms: _102  and  _103
REMARK   40  A    between atoms: _105  and  _107
REMARK   41  A    between atoms: _107  and  _108
REMARK   42  A    between atoms: _107  and  _110
REMARK   43  A    between atoms: _110  and  _111
REMARK   44  A    between atoms: _116  and  _117
REMARK   45  A    between atoms: _119  and  _121
REMARK   46  A    between atoms: _121  and  _122
REMARK   47  A    between atoms: _121  and  _124
REMARK   48  A    between atoms: _125  and  _126
REMARK   49  A    between atoms: _126  and  _127
REMARK   50  A    between atoms: _127  and  _128
REMARK   51  A    between atoms: _132  and  _134
REMARK   52  A    between atoms: _134  and  _135
REMARK   53  A    between atoms: _134  and  _137
REMARK   54  A    between atoms: _137  and  _138
REMARK   55  A    between atoms: _140  and  _142
REMARK   56  A    between atoms: _142  and  _143
REMARK   57  A    between atoms: _142  and  _145
REMARK   58  A    between atoms: _145  and  _146
REMARK   59  A    between atoms: _146  and  _147
REMARK   60  A    between atoms: _152  and  _154
REMARK   61  A    between atoms: _154  and  _155
REMARK   62  A    between atoms: _154  and  _157
REMARK   63  A    between atoms: _157  and  _158
REMARK   64  A    between atoms: _160  and  _162
REMARK   65  A    between atoms: _162  and  _163
REMARK   66  A    between atoms: _162  and  _165
REMARK   67  A    between atoms: _165  and  _166
REMARK   68  A    between atoms: _169  and  _171
REMARK   69  A    between atoms: _171  and  _172
REMARK   70  A    between atoms: _171  and  _174
REMARK   71  A    between atoms: _174  and  _175
REMARK   72  A    between atoms: _180  and  _182
REMARK   73  A    between atoms: _182  and  _183
REMARK   74  A    between atoms: _182  and  _185
REMARK   75  A    between atoms: _188  and  _190
REMARK   76  A    between atoms: _190  and  _191
REMARK   77  A    between atoms: _190  and  _193
REMARK   78  A    between atoms: _193  and  _194
REMARK   79  A    between atoms: _204  and  _206
REMARK   80  A    between atoms: _206  and  _207
REMARK   81  A    between atoms: _206  and  _209
REMARK   82  A    between atoms: _209  and  _210
REMARK   83  A    between atoms: _212  and  _214
REMARK   84  A    between atoms: _214  and  _215
REMARK   85  A    between atoms: _214  and  _217
REMARK   86  A    between atoms: _217  and  _218
REMARK   87  A    between atoms: _221  and  _223
REMARK   88  A    between atoms: _223  and  _224
REMARK   89  A    between atoms: _223  and  _226
REMARK   90  A    between atoms: _226  and  _227
REMARK   91  A    between atoms: _232  and  _233
REMARK   92  A    between atoms: _235  and  _237
REMARK   93  A    between atoms: _237  and  _238
REMARK   94  A    between atoms: _237  and  _240
REMARK   95  A    between atoms: _240  and  _241
REMARK   96  A    between atoms: _251  and  _253
REMARK   97  A    between atoms: _253  and  _254
REMARK   98  A    between atoms: _253  and  _256
REMARK   99  A    between atoms: _256  and  _257
REMARK  100  A    between atoms: _262  and  _264
REMARK  101  A    between atoms: _264  and  _265
REMARK  102  A    between atoms: _264  and  _267
REMARK  103  A    between atoms: _267  and  _268
REMARK  104  A    between atoms: _268  and  _269
REMARK  105  A    between atoms: _274  and  _276
REMARK  106  A    between atoms: _276  and  _277
REMARK  107  A    between atoms: _276  and  _279
REMARK  108  A    between atoms: _279  and  _280
REMARK  109  A    between atoms: _281  and  _282
REMARK  110  A    between atoms: _291  and  _293
REMARK  111  A    between atoms: _293  and  _294
REMARK  112  A    between atoms: _293  and  _296
REMARK  113  A    between atoms: _296  and  _297
REMARK  114  A    between atoms: _302  and  _304
REMARK  115  A    between atoms: _304  and  _305
REMARK  116  A    between atoms: _304  and  _307
REMARK  117  A    between atoms: _307  and  _308
REMARK  118  A    between atoms: _313  and  _314
REMARK  119  A    between atoms: _316  and  _318
REMARK  120  A    between atoms: _318  and  _319
REMARK  121  A    between atoms: _318  and  _321
REMARK  122  A    between atoms: _321  and  _322
REMARK  123  A    between atoms: _322  and  _323
REMARK  124  A    between atoms: _323  and  _324
REMARK  125  A    between atoms: _333  and  _335
REMARK  126  A    between atoms: _335  and  _336
REMARK  127  A    between atoms: _335  and  _338
REMARK  128  A    between atoms: _338  and  _339
REMARK  129  A    between atoms: _342  and  _344
REMARK  130  A    between atoms: _344  and  _345
REMARK  131  A    between atoms: _347  and  _349
REMARK  132  A    between atoms: _349  and  _350
REMARK  133  A    between atoms: _349  and  _352
REMARK  134  A    between atoms: _352  and  _353
REMARK  135  A    between atoms: _355  and  _357
REMARK  136  A    between atoms: _357  and  _358
REMARK  137  A    between atoms: _357  and  _360
REMARK  138  A    between atoms: _360  and  _361
REMARK  139  A    between atoms: _366  and  _367
REMARK  140  A    between atoms: _369  and  _371
REMARK  141  A    between atoms: _371  and  _372
REMARK  142  A    between atoms: _371  and  _374
REMARK  143  A    between atoms: _374  and  _375
REMARK  144  A    between atoms: _380  and  _381
REMARK  145  A    between atoms: _383  and  _385
REMARK  146  A    between atoms: _385  and  _386
REMARK  147  A    between atoms: _388  and  _390
REMARK  148  A    between atoms: _390  and  _391
REMARK  149  A    between atoms: _390  and  _393
REMARK  150  A    between atoms: _393  and  _394
REMARK  151  A    between atoms: _394  and  _395
REMARK  152  A    between atoms: _397  and  _399
REMARK  153  A    between atoms: _399  and  _400
REMARK  154  A    between atoms: _399  and  _402
REMARK  155  A    between atoms: _402  and  _403
REMARK                            x       y       z     vdW  Elec       q    Type
REMARK                         _______ _______ _______ _____ _____    ______ ____
ROOT
ATOM      1  CA  SER A   2      31.173  17.715  49.225  0.00  0.00    +0.178 C 
ENDROOT
BRANCH   1   4
ATOM      2  C   HIS A   1      29.199  16.695  48.229  0.00  0.00    +0.239 C 
ATOM      3  O   HIS A   1      28.556  16.675  49.298  0.00  0.00    -0.274 OA
ATOM      4  N   SER A   2      30.438  17.129  48.085  0.00  0.00    -0.295 N 
ATOM      5  H   SER A   2      30.902  17.057  47.157  0.00  0.00    +0.150 HD
BRANCH   2   6
ATOM      6  CA  HIS A   1      28.603  16.140  46.933  0.00  0.00    +0.151 C 
BRANCH   6   7
ATOM      7  N   HIS A   1      27.688  15.050  47.309  0.00  0.00    -0.238 NA
ATOM      8  H   HIS A   1      26.665  15.235  47.337  0.00  0.00    +0.142 HD
ENDBRANCH   6   7
BRANCH   6   9
ATOM      9  CB  HIS A   1      27.994  17.210  46.053  0.00  0.00    +0.074 C 
BRANCH   9  10
ATOM     10  CG  HIS A   1      28.975  18.019  45.258  0.00  0.00    +0.082 A 
ATOM     11  CD2 HIS A   1      29.159  19.355  45.191  0.00  0.00    +0.115 A 
ATOM     12  NE2 HIS A   1      30.200  19.619  44.341  0.00  0.00    -0.221 NA
ATOM     13  CE1 HIS A   1      30.679  18.467  43.930  0.00  0.00    +0.199 A 
ATOM     14  ND1 HIS A   1      29.958  17.491  44.464  0.00  0.00    -0.227 NA
ENDBRANCH   9  10
ENDBRANCH   6   9
ENDBRANCH   2   6
ENDBRANCH   1   4
BRANCH   1  15
ATOM     15  C   SER A   2      30.242  18.749  49.870  0.00  0.00    +0.243 C 
ATOM     16  O   SER A   2      30.117  18.778  51.090  0.00  0.00    -0.273 OA
ATOM     17  N   ASN A   3      29.608  19.534  49.015  0.00  0.00    -0.298 N 
ATOM     18  H   ASN A   3      29.782  19.388  48.000  0.00  0.00    +0.150 HD
BRANCH  17  19
ATOM     19  CA  ASN A   3      28.681  20.590  49.403  0.00  0.00    +0.146 C 
BRANCH  19  20
ATOM     20  C   ASN A   3      27.481  20.065  50.196  0.00  0.00    +0.227 C 
ATOM     21  O   ASN A   3      26.705  20.900  50.684  0.00  0.00    -0.286 OA
ENDBRANCH  19  20
BRANCH  19  22
ATOM     22  CB  ASN A   3      28.328  21.512  48.252  0.00  0.00    +0.112 C 
BRANCH  22  23
ATOM     23  CG  ASN A   3      27.254  20.960  47.282  0.00  0.00    +0.222 C 
ATOM     24  OD1 ASN A   3      26.773  19.881  47.556  0.00  0.00    -0.275 OA
ATOM     25  ND2 ASN A   3      26.961  21.822  46.326  0.00  0.00    -0.329 N 
ATOM     26 HD21 ASN A   3      27.493  22.712  46.247  0.00  0.00    +0.145 HD
ATOM     27 HD22 ASN A   3      26.198  21.611  45.652  0.00  0.00    +0.145 HD
ENDBRANCH  22  23
ENDBRANCH  19  22
ENDBRANCH  17  19
ENDBRANCH   1  15
BRANCH   1  28
ATOM     28  CB  SER A   2      32.454  18.377  48.768  0.00  0.00    +0.166 C 
BRANCH  28  29
ATOM     29  OG  SER A   2      32.213  19.602  48.085  0.00  0.00    -0.380 OA
ATOM     30  H   SER A   2      33.076  19.998  47.806  0.00  0.00    +0.211 HD
ENDBRANCH  28  29
ENDBRANCH   1  28
TORSDOF 12
REMARK  Name = ../refined-set-2016/1flr/1flr_pocket.pdb
REMARK  155 active torsions:
REMARK  status: ('A' for Active; 'I' for Inactive)
REMARK    1  A    between atoms: _1  and  _3
REMARK    2  A    between atoms: _3  and  _4
REMARK    3  A    between atoms: _3  and  _6
REMARK    4  A    between atoms: _6  and  _7
REMARK    5  A    between atoms: _12  and  _14
REMARK    6  A    between atoms: _14  and  _15
REMARK    7  A    between atoms: _14  and  _17
REMARK    8  A    between atoms: _17  and  _18
REMARK    9  A    between atoms: _20  and  _22
REMARK   10  A    between atoms: _22  and  _23
REMARK   11  A    between atoms: _22  and  _25
REMARK   12  A    between atoms: _25  and  _26
REMARK   13  A    between atoms: _31  and  _33
REMARK   14  A    between atoms: _33  and  _34
REMARK   15  A    between atoms: _33  and  _36
REMARK   16  A    between atoms: _36  and  _37
REMARK   17  A    between atoms: _42  and  _44
REMARK   18  A    between atoms: _44  and  _45
REMARK   19  A    between atoms: _44  and  _47
REMARK   20  A    between atoms: _47  and  _48
REMARK   21  A    between atoms: _51  and  _53
REMARK   22  A    between atoms: _53  and  _54
REMARK   23  A    between atoms: _53  and  _56
REMARK   24  A    between atoms: _56  and  _57
REMARK   25  A    between atoms: _62  and  _63
REMARK   26  A    between atoms: _65  and  _67
REMARK   27  A    between atoms: _67  and  _68
REMARK   28  A    between atoms: _67  and  _70
REMARK   29  A    between atoms: _70  and  _71
REMARK   30  A    between atoms: _74  and  _76
REMARK   31  A    between atoms: _76  and  _77
REMARK   32  A    between atoms: _76  and  _79
REMARK   33  A    between atoms: _80  and  _81
REMARK   34  A    between atoms: _81  and  _82
REMARK   35  A    between atoms: _91  and  _93
REMARK   36  A    between atoms: _93  and  _94
REMARK   37  A    between atoms: _93  and  _96
REMARK   38  A    between atoms: _96  and  _97
REMARK   39  A    between atoms: _102  and  _103
REMARK   40  A    between atoms: _105  and  _107
REMARK   41  A    between atoms: _107  and  _108
REMARK   42  A    between atoms: _107  and  _110
REMARK   43  A    between atoms: _110  and  _111
REMARK   44  A    between atoms: _116  and  _117
REMARK   45  A    between atoms: _119  and  _121
REMARK   46  A    between atoms: _121  and  _122
REMARK   47  A    between atoms: _121  and  _124
REMARK   48  A    between atoms: _125  and  _126
REMARK   49  A    between atoms: _126  and  _127
REMARK   50  A    between atoms: _127  and  _128
REMARK   51  A    between atoms: _132  and  _134
REMARK   52  A    between atoms: _134  and  _135
REMARK   53  A    between atoms: _134  and  _137
REMARK   54  A    between atoms: _137  and  _138
REMARK   55  A    between atoms: _140  and  _142
REMARK   56  A    between atoms: _142  and  _143
REMARK   57  A    between atoms: _142  and  _145
REMARK   58  A    between atoms: _145  and  _146
REMARK   59  A    between atoms: _146  and  _147
REMARK   60  A    between atoms: _152  and  _154
REMARK   61  A    between atoms: _154  and  _155
REMARK   62  A    between atoms: _154  and  _157
REMARK   63  A    between atoms: _157  and  _158
REMARK   64  A    between atoms: _160  and  _162
REMARK   65  A    between atoms: _162  and  _163
REMARK   66  A    between atoms: _162  and  _165
REMARK   67  A    between atoms: _165  and  _166
REMARK   68  A    between atoms: _169  and  _171
REMARK   69  A    between atoms: _171  and  _172
REMARK   70  A    between atoms: _171  and  _174
REMARK   71  A    between atoms: _174  and  _175
REMARK   72  A    between atoms: _180  and  _182
REMARK   73  A    between atoms: _182  and  _183
REMARK   74  A    between atoms: _182  and  _185
REMARK   75  A    between atoms: _188  and  _190
REMARK   76  A    between atoms: _190  and  _191
REMARK   77  A    between atoms: _190  and  _193
REMARK   78  A    between atoms: _193  and  _194
REMARK   79  A    between atoms: _204  and  _206
REMARK   80  A    between atoms: _206  and  _207
REMARK   81  A    between atoms: _206  and  _209
REMARK   82  A    between atoms: _209  and  _210
REMARK   83  A    between atoms: _212  and  _214
REMARK   84  A    between atoms: _214  and  _215
REMARK   85  A    between atoms: _214  and  _217
REMARK   86  A    between atoms: _217  and  _218
REMARK   87  A    between atoms: _221  and  _223
REMARK   88  A    between atoms: _223  and  _224
REMARK   89  A    between atoms: _223  and  _226
REMARK   90  A    between atoms: _226  and  _227
REMARK   91  A    between atoms: _232  and  _233
REMARK   92  A    between atoms: _235  and  _237
REMARK   93  A    between atoms: _237  and  _238
REMARK   94  A    between atoms: _237  and  _240
REMARK   95  A    between atoms: _240  and  _241
REMARK   96  A    between atoms: _251  and  _253
REMARK   97  A    between atoms: _253  and  _254
REMARK   98  A    between atoms: _253  and  _256
REMARK   99  A    between atoms: _256  and  _257
REMARK  100  A    between atoms: _262  and  _264
REMARK  101  A    between atoms: _264  and  _265
REMARK  102  A    between atoms: _264  and  _267
REMARK  103  A    between atoms: _267  and  _268
REMARK  104  A    between atoms: _268  and  _269
REMARK  105  A    between atoms: _274  and  _276
REMARK  106  A    between atoms: _276  and  _277
REMARK  107  A    between atoms: _276  and  _279
REMARK  108  A    between atoms: _279  and  _280
REMARK  109  A    between atoms: _281  and  _282
REMARK  110  A    between atoms: _291  and  _293
REMARK  111  A    between atoms: _293  and  _294
REMARK  112  A    between atoms: _293  and  _296
REMARK  113  A    between atoms: _296  and  _297
REMARK  114  A    between atoms: _302  and  _304
REMARK  115  A    between atoms: _304  and  _305
REMARK  116  A    between atoms: _304  and  _307
REMARK  117  A    between atoms: _307  and  _308
REMARK  118  A    between atoms: _313  and  _314
REMARK  119  A    between atoms: _316  and  _318
REMARK  120  A    between atoms: _318  and  _319
REMARK  121  A    between atoms: _318  and  _321
REMARK  122  A    between atoms: _321  and  _322
REMARK  123  A    between atoms: _322  and  _323
REMARK  124  A    between atoms: _323  and  _324
REMARK  125  A    between atoms: _333  and  _335
REMARK  126  A    between atoms: _335  and  _336
REMARK  127  A    between atoms: _335  and  _338
REMARK  128  A    between atoms: _338  and  _339
REMARK  129  A    between atoms: _342  and  _344
REMARK  130  A    between atoms: _344  and  _345
REMARK  131  A    between atoms: _347  and  _349
REMARK  132  A    between atoms: _349  and  _350
REMARK  133  A    between atoms: _349  and  _352
REMARK  134  A    between atoms: _352  and  _353
REMARK  135  A    between atoms: _355  and  _357
REMARK  136  A    between atoms: _357  and  _358
REMARK  137  A    between atoms: _357  and  _360
REMARK  138  A    between atoms: _360  and  _361
REMARK  139  A    between atoms: _366  and  _367
REMARK  140  A    between atoms: _369  and  _371
REMARK  141  A    between atoms: _371  and  _372
REMARK  142  A    between atoms: _371  and  _374
REMARK  143  A    between atoms: _374  and  _375
REMARK  144  A    between atoms: _380  and  _381
REMARK  145  A    between atoms: _383  and  _385
REMARK  146  A    between atoms: _385  and  _386
REMARK  147  A    between atoms: _388  and  _390
REMARK  148  A    between atoms: _390  and  _391
REMARK  149  A    between atoms: _390  and  _393
REMARK  150  A    between atoms: _393  and  _394
REMARK  151  A    between atoms: _394  and  _395
REMARK  152  A    between atoms: _397  and  _399
REMARK  153  A    between atoms: _399  and  _400
REMARK  154  A    between atoms: _399  and  _402
REMARK  155  A    between atoms: _402  and  _403
REMARK                            x       y       z     vdW  Elec       q    Type
REMARK                         _______ _______ _______ _____ _____    ______ ____
ROOT
ATOM      1  CA  TYR A   3      22.264  15.433  42.761  0.00  0.00    +0.153 C 
ENDROOT
BRANCH   1   2
ATOM      2  C   TYR A   3      21.899  14.238  41.901  0.00  0.00    +0.241 C 
ATOM      3  N   LEU A   4      20.732  13.697  42.126  0.00  0.00    -0.297 N 
ATOM      4  H   LEU A   4      20.191  14.111  42.912  0.00  0.00    +0.150 HD
ATOM      5  O   TYR A   3      22.753  13.794  41.139  0.00  0.00    -0.273 OA
BRANCH   3   6
ATOM      6  CA  LEU A   4      20.090  12.607  41.438  0.00  0.00    +0.149 C 
BRANCH   6   7
ATOM      7  C   LEU A   4      18.726  13.076  40.961  0.00  0.00    +0.241 C 
ATOM      8  O   LEU A   4      17.937  13.562  41.788  0.00  0.00    -0.273 OA
ATOM      9  N   ARG A   5      18.478  12.925  39.661  0.00  0.00    -0.295 N 
ATOM     10  H   ARG A   5      19.199  12.467  39.068  0.00  0.00    +0.150 HD
BRANCH   9  11
ATOM     11  CA  ARG A   5      17.251  13.369  39.036  0.00  0.00    +0.159 C 
BRANCH  11  12
ATOM     12  CB  ARG A   5      17.474  14.411  37.952  0.00  0.00    -0.000 C 
ATOM     13  CG  ARG A   5      17.312  15.863  38.179  0.00  0.00    +0.014 C 
BRANCH  13  14
ATOM     14  CD  ARG A   5      17.643  16.763  37.058  0.00  0.00    +0.200 C 
BRANCH  14  15
ATOM     15  NE  ARG A   5      18.994  16.608  36.535  0.00  0.00    -0.261 N 
ATOM     16  CZ  ARG A   5      20.000  17.432  36.787  0.00  0.00    +0.342 C 
ATOM     17  NH2 ARG A   5      19.875  18.460  37.631  0.00  0.00    -0.292 N 
ATOM     18 HH21 ARG A   5      18.969  18.631  38.111  0.00  0.00    +0.255 HD
ATOM     19 HH22 ARG A   5      20.684  19.089  37.808  0.00  0.00    +0.255 HD
ATOM     20  NH1 ARG A   5      21.187  17.246  36.212  0.00  0.00    -0.292 N 
ATOM     21 HH11 ARG A   5      21.971  17.898  36.416  0.00  0.00    +0.255 HD
ATOM     22 HH12 ARG A   5      21.329  16.449  35.559  0.00  0.00    +0.255 HD
ATOM     23  HE  ARG A   5      19.182  15.791  35.919  0.00  0.00    +0.259 HD
ENDBRANCH  14  15
ENDBRANCH  13  14
ENDBRANCH  11  12
BRANCH  11  24
ATOM     24  C   ARG A   5      16.548  12.149  38.357  0.00  0.00    +0.231 C 
ATOM     25  O   ARG A   5      17.252  11.192  38.080  0.00  0.00    -0.286 OA
ENDBRANCH  11  24
ENDBRANCH   9  11
ENDBRANCH   6   7
BRANCH   6  26
ATOM     26  CB  LEU A   4      20.052  11.308  42.239  0.00  0.00    +0.029 C 
BRANCH  26  27
ATOM     27  CG  LEU A   4      19.419  10.235  41.291  0.00  0.00    +0.002 C 
ATOM     28  CD2 LEU A   4      17.954  10.122  41.730  0.00  0.00    +0.000 C 
ATOM     29  CD1 LEU A   4      20.181   8.971  41.403  0.00  0.00    +0.000 C 
ENDBRANCH  26  27
ENDBRANCH   6  26
ENDBRANCH   3   6
ENDBRANCH   1   2
BRANCH   1  32
ATOM     30  C   THR A   2      22.013  14.950  45.115  0.00  0.00    +0.243 C 
ATOM     31  O   THR A   2      20.817  15.285  45.107  0.00  0.00    -0.273 OA
ATOM     32  N   TYR A   3      22.835  14.982  44.062  0.00  0.00    -0.297 N 
ATOM     33  H   TYR A   3      23.833  14.703  44.147  0.00  0.00    +0.150 HD
BRANCH  30  34
ATOM     34  CA  THR A   2      22.750  14.581  46.427  0.00  0.00    +0.176 C 
BRANCH  34  37
ATOM     35  C   ASN A   1      23.890  16.479  47.489  0.00  0.00    +0.239 C 
ATOM     36  O   ASN A   1      25.004  15.959  47.407  0.00  0.00    -0.274 OA
ATOM     37  N   THR A   2      22.755  15.896  47.146  0.00  0.00    -0.295 N 
ATOM     38  H   THR A   2      21.852  16.356  47.378  0.00  0.00    +0.150 HD
BRANCH  35  39
ATOM     39  CA  ASN A   1      23.754  17.864  48.119  0.00  0.00    +0.154 C 
BRANCH  39  40
ATOM     40  N   ASN A   1      24.871  18.151  49.031  0.00  0.00    -0.238 NA
ATOM     41  H   ASN A   1      25.632  18.761  48.670  0.00  0.00    +0.142 HD
ENDBRANCH  39  40
BRANCH  39  42
ATOM     42  CB  ASN A   1      23.601  18.979  47.077  0.00  0.00    +0.111 C 
BRANCH  42  43
ATOM     43  CG  ASN A   1      23.054  20.254  47.702  0.00  0.00    +0.221 C 
ATOM     44  OD1 ASN A   1      22.171  20.187  48.569  0.00  0.00    -0.275 OA
ATOM     45  ND2 ASN A   1      23.520  21.426  47.293  0.00  0.00    -0.329 N 
ATOM     46 HD21 ASN A   1      23.144  22.306  47.701  0.00  0.00    +0.145 HD
ATOM     47 HD22 ASN A   1      24.261  21.465  46.565  0.00  0.00    +0.145 HD
ENDBRANCH  42  43
ENDBRANCH  39  42
ENDBRANCH  35  39
ENDBRANCH  34  37
BRANCH  34  48
ATOM     48  CB  THR A   2      22.260  13.309  47.095  0.00  0.00    +0.137 C 
ATOM     49  CG2 THR A   2      22.564  11.985  46.305  0.00  0.00    +0.034 C 
BRANCH  48  50
ATOM     50  OG1 THR A   2      22.997  13.204  48.379  0.00  0.00    -0.382 OA
ATOM     51  HG1 THR A   2      22.800  13.998  48.937  0.00  0.00    +0.210 HD
ENDBRANCH  48  50
ENDBRANCH  34  48
ENDBRANCH  30  34
ENDBRANCH   1  32
BRANCH   1  52
ATOM     52  CB  TYR A   3      23.297  16.350  42.117  0.00  0.00    +0.055 C 
BRANCH  52  53
ATOM     53  CG  TYR A   3      23.699  17.646  42.728  0.00  0.00    -0.020 A 
ATOM     54  CD2 TYR A   3      24.932  17.753  43.403  0.00  0.00    -0.001 A 
ATOM     55  CE2 TYR A   3      25.317  18.969  43.938  0.00  0.00    +0.036 A 
ATOM     56  CZ  TYR A   3      24.479  20.063  43.808  0.00  0.00    +0.134 A 
ATOM     57  CE1 TYR A   3      23.243  19.983  43.156  0.00  0.00    +0.036 A 
ATOM     58  CD1 TYR A   3      22.843  18.768  42.660  0.00  0.00    -0.001 A 
BRANCH  56  59
ATOM     59  OH  TYR A   3      24.808  21.334  44.282  0.00  0.00    -0.506 OA
ATOM     60  HH  TYR A   3      24.068  21.961  44.083  0.00  0.00    +0.292 HD
ENDBRANCH  56  59
ENDBRANCH  52  53
ENDBRANCH   1  52
TORSDOF 22
REMARK  Name = ../refined-set-2016/1flr/1flr_pocket.pdb
REMARK  155 active torsions:
REMARK  status: ('A' for Active; 'I' for Inactive)
REMARK    1  A    between atoms: _1  and  _3
REMARK    2  A    between atoms: _3  and  _4
REMARK    3  A    between atoms: _3  and  _6
REMARK    4  A    between atoms: _6  and  _7
REMARK    5  A    between atoms: _12  and  _14
REMARK    6  A    between atoms: _14  and  _15
REMARK    7  A    between atoms: _14  and  _17
REMARK    8  A    between atoms: _17  and  _18
REMARK    9  A    between atoms: _20  and  _22
REMARK   10  A    between atoms: _22  and  _23
REMARK   11  A    between atoms: _22  and  _25
REMARK   12  A    between atoms: _25  and  _26
REMARK   13  A    between atoms: _31  and  _33
REMARK   14  A    between atoms: _33  and  _34
REMARK   15  A    between atoms: _33  and  _36
REMARK   16  A    between atoms: _36  and  _37
REMARK   17  A    between atoms: _42  and  _44
REMARK   18  A    between atoms: _44  and  _45
REMARK   19  A    between atoms: _44  and  _47
REMARK   20  A    between atoms: _47  and  _48
REMARK   21  A    between atoms: _51  and  _53
REMARK   22  A    between atoms: _53  and  _54
REMARK   23  A    between atoms: _53  and  _56
REMARK   24  A    between atoms: _56  and  _57
REMARK   25  A    between atoms: _62  and  _63
REMARK   26  A    between atoms: _65  and  _67
REMARK   27  A    between atoms: _67  and  _68
REMARK   28  A    between atoms: _67  and  _70
REMARK   29  A    between atoms: _70  and  _71
REMARK   30  A    between atoms: _74  and  _76
REMARK   31  A    between atoms: _76  and  _77
REMARK   32  A    between atoms: _76  and  _79
REMARK   33  A    between atoms: _80  and  _81
REMARK   34  A    between atoms: _81  and  _82
REMARK   35  A    between atoms: _91  and  _93
REMARK   36  A    between atoms: _93  and  _94
REMARK   37  A    between atoms: _93  and  _96
REMARK   38  A    between atoms: _96  and  _97
REMARK   39  A    between atoms: _102  and  _103
REMARK   40  A    between atoms: _105  and  _107
REMARK   41  A    between atoms: _107  and  _108
REMARK   42  A    between atoms: _107  and  _110
REMARK   43  A    between atoms: _110  and  _111
REMARK   44  A    between atoms: _116  and  _117
REMARK   45  A    between atoms: _119  and  _121
REMARK   46  A    between atoms: _121  and  _122
REMARK   47  A    between atoms: _121  and  _124
REMARK   48  A    between atoms: _125  and  _126
REMARK   49  A    between atoms: _126  and  _127
REMARK   50  A    between atoms: _127  and  _128
REMARK   51  A    between atoms: _132  and  _134
REMARK   52  A    between atoms: _134  and  _135
REMARK   53  A    between atoms: _134  and  _137
REMARK   54  A    between atoms: _137  and  _138
REMARK   55  A    between atoms: _140  and  _142
REMARK   56  A    between atoms: _142  and  _143
REMARK   57  A    between atoms: _142  and  _145
REMARK   58  A    between atoms: _145  and  _146
REMARK   59  A    between atoms: _146  and  _147
REMARK   60  A    between atoms: _152  and  _154
REMARK   61  A    between atoms: _154  and  _155
REMARK   62  A    between atoms: _154  and  _157
REMARK   63  A    between atoms: _157  and  _158
REMARK   64  A    between atoms: _160  and  _162
REMARK   65  A    between atoms: _162  and  _163
REMARK   66  A    between atoms: _162  and  _165
REMARK   67  A    between atoms: _165  and  _166
REMARK   68  A    between atoms: _169  and  _171
REMARK   69  A    between atoms: _171  and  _172
REMARK   70  A    between atoms: _171  and  _174
REMARK   71  A    between atoms: _174  and  _175
REMARK   72  A    between atoms: _180  and  _182
REMARK   73  A    between atoms: _182  and  _183
REMARK   74  A    between atoms: _182  and  _185
REMARK   75  A    between atoms: _188  and  _190
REMARK   76  A    between atoms: _190  and  _191
REMARK   77  A    between atoms: _190  and  _193
REMARK   78  A    between atoms: _193  and  _194
REMARK   79  A    between atoms: _204  and  _206
REMARK   80  A    between atoms: _206  and  _207
REMARK   81  A    between atoms: _206  and  _209
REMARK   82  A    between atoms: _209  and  _210
REMARK   83  A    between atoms: _212  and  _214
REMARK   84  A    between atoms: _214  and  _215
REMARK   85  A    between atoms: _214  and  _217
REMARK   86  A    between atoms: _217  and  _218
REMARK   87  A    between atoms: _221  and  _223
REMARK   88  A    between atoms: _223  and  _224
REMARK   89  A    between atoms: _223  and  _226
REMARK   90  A    between atoms: _226  and  _227
REMARK   91  A    between atoms: _232  and  _233
REMARK   92  A    between atoms: _235  and  _237
REMARK   93  A    between atoms: _237  and  _238
REMARK   94  A    between atoms: _237  and  _240
REMARK   95  A    between atoms: _240  and  _241
REMARK   96  A    between atoms: _251  and  _253
REMARK   97  A    between atoms: _253  and  _254
REMARK   98  A    between atoms: _253  and  _256
REMARK   99  A    between atoms: _256  and  _257
REMARK  100  A    between atoms: _262  and  _264
REMARK  101  A    between atoms: _264  and  _265
REMARK  102  A    between atoms: _264  and  _267
REMARK  103  A    between atoms: _267  and  _268
REMARK  104  A    between atoms: _268  and  _269
REMARK  105  A    between atoms: _274  and  _276
REMARK  106  A    between atoms: _276  and  _277
REMARK  107  A    between atoms: _276  and  _279
REMARK  108  A    between atoms: _279  and  _280
REMARK  109  A    between atoms: _281  and  _282
REMARK  110  A    between atoms: _291  and  _293
REMARK  111  A    between atoms: _293  and  _294
REMARK  112  A    between atoms: _293  and  _296
REMARK  113  A    between atoms: _296  and  _297
REMARK  114  A    between atoms: _302  and  _304
REMARK  115  A    between atoms: _304  and  _305
REMARK  116  A    between atoms: _304  and  _307
REMARK  117  A    between atoms: _307  and  _308
REMARK  118  A    between atoms: _313  and  _314
REMARK  119  A    between atoms: _316  and  _318
REMARK  120  A    between atoms: _318  and  _319
REMARK  121  A    between atoms: _318  and  _321
REMARK  122  A    between atoms: _321  and  _322
REMARK  123  A    between atoms: _322  and  _323
REMARK  124  A    between atoms: _323  and  _324
REMARK  125  A    between atoms: _333  and  _335
REMARK  126  A    between atoms: _335  and  _336
REMARK  127  A    between atoms: _335  and  _338
REMARK  128  A    between atoms: _338  and  _339
REMARK  129  A    between atoms: _342  and  _344
REMARK  130  A    between atoms: _344  and  _345
REMARK  131  A    between atoms: _347  and  _349
REMARK  132  A    between atoms: _349  and  _350
REMARK  133  A    between atoms: _349  and  _352
REMARK  134  A    between atoms: _352  and  _353
REMARK  135  A    between atoms: _355  and  _357
REMARK  136  A    between atoms: _357  and  _358
REMARK  137  A    between atoms: _357  and  _360
REMARK  138  A    between atoms: _360  and  _361
REMARK  139  A    between atoms: _366  and  _367
REMARK  140  A    between atoms: _369  and  _371
REMARK  141  A    between atoms: _371  and  _372
REMARK  142  A    between atoms: _371  and  _374
REMARK  143  A    between atoms: _374  and  _375
REMARK  144  A    between atoms: _380  and  _381
REMARK  145  A    between atoms: _383  and  _385
REMARK  146  A    between atoms: _385  and  _386
REMARK  147  A    between atoms: _388  and  _390
REMARK  148  A    between atoms: _390  and  _391
REMARK  149  A    between atoms: _390  and  _393
REMARK  150  A    between atoms: _393  and  _394
REMARK  151  A    between atoms: _394  and  _395
REMARK  152  A    between atoms: _397  and  _399
REMARK  153  A    between atoms: _399  and  _400
REMARK  154  A    between atoms: _399  and  _402
REMARK  155  A    between atoms: _402  and  _403
REMARK                            x       y       z     vdW  Elec       q    Type
REMARK                         _______ _______ _______ _____ _____    ______ ____
ROOT
ATOM      1  CG  TYR A   1      15.259  13.185  33.243  0.00  0.00    -0.020 A 
ATOM      2  CD2 TYR A   1      16.404  12.683  33.804  0.00  0.00    -0.001 A 
ATOM      3  CE2 TYR A   1      17.540  13.474  34.080  0.00  0.00    +0.036 A 
ATOM      4  CZ  TYR A   1      17.458  14.785  33.728  0.00  0.00    +0.134 A 
ATOM      5  CE1 TYR A   1      16.315  15.358  33.157  0.00  0.00    +0.036 A 
ATOM      6  CD1 TYR A   1      15.215  14.531  32.875  0.00  0.00    -0.001 A 
ENDROOT
BRANCH   4   7
ATOM      7  OH  TYR A   1      18.544  15.629  33.969  0.00  0.00    -0.506 OA
ATOM      8  HH  TYR A   1      18.847  16.028  33.115  0.00  0.00    +0.292 HD
ENDBRANCH   4   7
BRANCH   1   9
ATOM      9  CB  TYR A   1      14.057  12.288  32.973  0.00  0.00    +0.051 C 
BRANCH   9  10
ATOM     10  CA  TYR A   1      13.075  11.927  34.095  0.00  0.00    +0.137 C 
BRANCH  10  11
ATOM     11  N   TYR A   1      13.684  11.383  35.290  0.00  0.00    -0.239 NA
ATOM     12  H   TYR A   1      14.151  10.455  35.242  0.00  0.00    +0.142 HD
ENDBRANCH  10  11
BRANCH  10  13
ATOM     13  C   TYR A   1      12.042  10.879  33.446  0.00  0.00    +0.224 C 
ATOM     14  O   TYR A   1      12.219   9.722  33.729  0.00  0.00    -0.287 OA
ENDBRANCH  10  13
ENDBRANCH   9  10
ENDBRANCH   1   9
TORSDOF 5
REMARK  Name = ../refined-set-2016/1flr/1flr_pocket.pdb
REMARK  155 active torsions:
REMARK  status: ('A' for Active; 'I' for Inactive)
REMARK    1  A    between atoms: _1  and  _3
REMARK    2  A    between atoms: _3  and  _4
REMARK    3  A    between atoms: _3  and  _6
REMARK    4  A    between atoms: _6  and  _7
REMARK    5  A    between atoms: _12  and  _14
REMARK    6  A    between atoms: _14  and  _15
REMARK    7  A    between atoms: _14  and  _17
REMARK    8  A    between atoms: _17  and  _18
REMARK    9  A    between atoms: _20  and  _22
REMARK   10  A    between atoms: _22  and  _23
REMARK   11  A    between atoms: _22  and  _25
REMARK   12  A    between atoms: _25  and  _26
REMARK   13  A    between atoms: _31  and  _33
REMARK   14  A    between atoms: _33  and  _34
REMARK   15  A    between atoms: _33  and  _36
REMARK   16  A    between atoms: _36  and  _37
REMARK   17  A    between atoms: _42  and  _44
REMARK   18  A    between atoms: _44  and  _45
REMARK   19  A    between atoms: _44  and  _47
REMARK   20  A    between atoms: _47  and  _48
REMARK   21  A    between atoms: _51  and  _53
REMARK   22  A    between atoms: _53  and  _54
REMARK   23  A    between atoms: _53  and  _56
REMARK   24  A    between atoms: _56  and  _57
REMARK   25  A    between atoms: _62  and  _63
REMARK   26  A    between atoms: _65  and  _67
REMARK   27  A    between atoms: _67  and  _68
REMARK   28  A    between atoms: _67  and  _70
REMARK   29  A    between atoms: _70  and  _71
REMARK   30  A    between atoms: _74  and  _76
REMARK   31  A    between atoms: _76  and  _77
REMARK   32  A    between atoms: _76  and  _79
REMARK   33  A    between atoms: _80  and  _81
REMARK   34  A    between atoms: _81  and  _82
REMARK   35  A    between atoms: _91  and  _93
REMARK   36  A    between atoms: _93  and  _94
REMARK   37  A    between atoms: _93  and  _96
REMARK   38  A    between atoms: _96  and  _97
REMARK   39  A    between atoms: _102  and  _103
REMARK   40  A    between atoms: _105  and  _107
REMARK   41  A    between atoms: _107  and  _108
REMARK   42  A    between atoms: _107  and  _110
REMARK   43  A    between atoms: _110  and  _111
REMARK   44  A    between atoms: _116  and  _117
REMARK   45  A    between atoms: _119  and  _121
REMARK   46  A    between atoms: _121  and  _122
REMARK   47  A    between atoms: _121  and  _124
REMARK   48  A    between atoms: _125  and  _126
REMARK   49  A    between atoms: _126  and  _127
REMARK   50  A    between atoms: _127  and  _128
REMARK   51  A    between atoms: _132  and  _134
REMARK   52  A    between atoms: _134  and  _135
REMARK   53  A    between atoms: _134  and  _137
REMARK   54  A    between atoms: _137  and  _138
REMARK   55  A    between atoms: _140  and  _142
REMARK   56  A    between atoms: _142  and  _143
REMARK   57  A    between atoms: _142  and  _145
REMARK   58  A    between atoms: _145  and  _146
REMARK   59  A    between atoms: _146  and  _147
REMARK   60  A    between atoms: _152  and  _154
REMARK   61  A    between atoms: _154  and  _155
REMARK   62  A    between atoms: _154  and  _157
REMARK   63  A    between atoms: _157  and  _158
REMARK   64  A    between atoms: _160  and  _162
REMARK   65  A    between atoms: _162  and  _163
REMARK   66  A    between atoms: _162  and  _165
REMARK   67  A    between atoms: _165  and  _166
REMARK   68  A    between atoms: _169  and  _171
REMARK   69  A    between atoms: _171  and  _172
REMARK   70  A    between atoms: _171  and  _174
REMARK   71  A    between atoms: _174  and  _175
REMARK   72  A    between atoms: _180  and  _182
REMARK   73  A    between atoms: _182  and  _183
REMARK   74  A    between atoms: _182  and  _185
REMARK   75  A    between atoms: _188  and  _190
REMARK   76  A    between atoms: _190  and  _191
REMARK   77  A    between atoms: _190  and  _193
REMARK   78  A    between atoms: _193  and  _194
REMARK   79  A    between atoms: _204  and  _206
REMARK   80  A    between atoms: _206  and  _207
REMARK   81  A    between atoms: _206  and  _209
REMARK   82  A    between atoms: _209  and  _210
REMARK   83  A    between atoms: _212  and  _214
REMARK   84  A    between atoms: _214  and  _215
REMARK   85  A    between atoms: _214  and  _217
REMARK   86  A    between atoms: _217  and  _218
REMARK   87  A    between atoms: _221  and  _223
REMARK   88  A    between atoms: _223  and  _224
REMARK   89  A    between atoms: _223  and  _226
REMARK   90  A    between atoms: _226  and  _227
REMARK   91  A    between atoms: _232  and  _233
REMARK   92  A    between atoms: _235  and  _237
REMARK   93  A    between atoms: _237  and  _238
REMARK   94  A    between atoms: _237  and  _240
REMARK   95  A    between atoms: _240  and  _241
REMARK   96  A    between atoms: _251  and  _253
REMARK   97  A    between atoms: _253  and  _254
REMARK   98  A    between atoms: _253  and  _256
REMARK   99  A    between atoms: _256  and  _257
REMARK  100  A    between atoms: _262  and  _264
REMARK  101  A    between atoms: _264  and  _265
REMARK  102  A    between atoms: _264  and  _267
REMARK  103  A    between atoms: _267  and  _268
REMARK  104  A    between atoms: _268  and  _269
REMARK  105  A    between atoms: _274  and  _276
REMARK  106  A    between atoms: _276  and  _277
REMARK  107  A    between atoms: _276  and  _279
REMARK  108  A    between atoms: _279  and  _280
REMARK  109  A    between atoms: _281  and  _282
REMARK  110  A    between atoms: _291  and  _293
REMARK  111  A    between atoms: _293  and  _294
REMARK  112  A    between atoms: _293  and  _296
REMARK  113  A    between atoms: _296  and  _297
REMARK  114  A    between atoms: _302  and  _304
REMARK  115  A    between atoms: _304  and  _305
REMARK  116  A    between atoms: _304  and  _307
REMARK  117  A    between atoms: _307  and  _308
REMARK  118  A    between atoms: _313  and  _314
REMARK  119  A    between atoms: _316  and  _318
REMARK  120  A    between atoms: _318  and  _319
REMARK  121  A    between atoms: _318  and  _321
REMARK  122  A    between atoms: _321  and  _322
REMARK  123  A    between atoms: _322  and  _323
REMARK  124  A    between atoms: _323  and  _324
REMARK  125  A    between atoms: _333  and  _335
REMARK  126  A    between atoms: _335  and  _336
REMARK  127  A    between atoms: _335  and  _338
REMARK  128  A    between atoms: _338  and  _339
REMARK  129  A    between atoms: _342  and  _344
REMARK  130  A    between atoms: _344  and  _345
REMARK  131  A    between atoms: _347  and  _349
REMARK  132  A    between atoms: _349  and  _350
REMARK  133  A    between atoms: _349  and  _352
REMARK  134  A    between atoms: _352  and  _353
REMARK  135  A    between atoms: _355  and  _357
REMARK  136  A    between atoms: _357  and  _358
REMARK  137  A    between atoms: _357  and  _360
REMARK  138  A    between atoms: _360  and  _361
REMARK  139  A    between atoms: _366  and  _367
REMARK  140  A    between atoms: _369  and  _371
REMARK  141  A    between atoms: _371  and  _372
REMARK  142  A    between atoms: _371  and  _374
REMARK  143  A    between atoms: _374  and  _375
REMARK  144  A    between atoms: _380  and  _381
REMARK  145  A    between atoms: _383  and  _385
REMARK  146  A    between atoms: _385  and  _386
REMARK  147  A    between atoms: _388  and  _390
REMARK  148  A    between atoms: _390  and  _391
REMARK  149  A    between atoms: _390  and  _393
REMARK  150  A    between atoms: _393  and  _394
REMARK  151  A    between atoms: _394  and  _395
REMARK  152  A    between atoms: _397  and  _399
REMARK  153  A    between atoms: _399  and  _400
REMARK  154  A    between atoms: _399  and  _402
REMARK  155  A    between atoms: _402  and  _403
REMARK                            x       y       z     vdW  Elec       q    Type
REMARK                         _______ _______ _______ _____ _____    ______ ____
ROOT
ATOM      1  C   TYR A   1      15.992  16.457  42.964  0.00  0.00    +0.239 C 
ATOM      2  O   TYR A   1      15.143  16.570  43.857  0.00  0.00    -0.274 OA
ATOM      3  N   LYS A   2      17.271  16.261  43.167  0.00  0.00    -0.295 N 
ATOM      4  H   LYS A   2      17.868  16.174  42.320  0.00  0.00    +0.150 HD
ENDROOT
BRANCH   1   5
ATOM      5  CA  TYR A   1      15.478  16.514  41.536  0.00  0.00    +0.149 C 
BRANCH   5   6
ATOM      6  N   TYR A   1      14.094  16.015  41.486  0.00  0.00    -0.238 NA
ATOM      7  H   TYR A   1      13.401  16.397  42.161  0.00  0.00    +0.142 HD
ENDBRANCH   5   6
BRANCH   5   8
ATOM      8  CB  TYR A   1      15.534  17.921  40.887  0.00  0.00    +0.053 C 
BRANCH   8   9
ATOM      9  CG  TYR A   1      14.871  18.990  41.699  0.00  0.00    -0.020 A 
ATOM     10  CD2 TYR A   1      15.643  19.633  42.705  0.00  0.00    -0.001 A 
ATOM     11  CE2 TYR A   1      15.077  20.635  43.496  0.00  0.00    +0.036 A 
ATOM     12  CZ  TYR A   1      13.776  20.971  43.280  0.00  0.00    +0.134 A 
ATOM     13  CE1 TYR A   1      12.981  20.334  42.296  0.00  0.00    +0.036 A 
ATOM     14  CD1 TYR A   1      13.554  19.344  41.508  0.00  0.00    -0.001 A 
BRANCH  12  15
ATOM     15  OH  TYR A   1      13.210  21.962  44.032  0.00  0.00    -0.506 OA
ATOM     16  HH  TYR A   1      12.436  21.596  44.529  0.00  0.00    +0.292 HD
ENDBRANCH  12  15
ENDBRANCH   8   9
ENDBRANCH   5   8
ENDBRANCH   1   5
BRANCH   3  17
ATOM     17  CA  LYS A   2      17.940  16.153  44.439  0.00  0.00    +0.159 C 
BRANCH  17  18
ATOM     18  C   LYS A   2      17.286  15.089  45.279  0.00  0.00    +0.231 C 
ATOM     19  O   LYS A   2      17.080  15.210  46.483  0.00  0.00    -0.286 OA
ENDBRANCH  17  18
BRANCH  17  20
ATOM     20  CB  LYS A   2      18.186  17.506  45.138  0.00  0.00    -0.004 C 
ATOM     21  CG  LYS A   2      19.070  18.479  44.388  0.00  0.00    -0.031 C 
BRANCH  21  22
ATOM     22  CD  LYS A   2      19.626  19.668  45.162  0.00  0.00    +0.002 C 
BRANCH  22  23
ATOM     23  CE  LYS A   2      18.557  20.611  45.585  0.00  0.00    -0.081 C 
BRANCH  23  24
ATOM     24  NZ  LYS A   2      18.973  21.972  45.886  0.00  0.00    +0.381 N 
ATOM     25  HZ1 LYS A   2      19.664  21.958  46.663  0.00  0.00    -0.089 HD
ATOM     26  HZ2 LYS A   2      18.144  22.532  46.168  0.00  0.00    -0.089 HD
ATOM     27  HZ3 LYS A   2      19.408  22.395  45.041  0.00  0.00    -0.089 HD
ENDBRANCH  23  24
ENDBRANCH  22  23
ENDBRANCH  21  22
ENDBRANCH  17  20
ENDBRANCH   3  17
TORSDOF 11
REMARK  Name = ../refined-set-2016/1flr/1flr_pocket.pdb
REMARK  155 active torsions:
REMARK  status: ('A' for Active; 'I' for Inactive)
REMARK    1  A    between atoms: _1  and  _3
REMARK    2  A    between atoms: _3  and  _4
REMARK    3  A    between atoms: _3  and  _6
REMARK    4  A    between atoms: _6  and  _7
REMARK    5  A    between atoms: _12  and  _14
REMARK    6  A    between atoms: _14  and  _15
REMARK    7  A    between atoms: _14  and  _17
REMARK    8  A    between atoms: _17  and  _18
REMARK    9  A    between atoms: _20  and  _22
REMARK   10  A    between atoms: _22  and  _23
REMARK   11  A    between atoms: _22  and  _25
REMARK   12  A    between atoms: _25  and  _26
REMARK   13  A    between atoms: _31  and  _33
REMARK   14  A    between atoms: _33  and  _34
REMARK   15  A    between atoms: _33  and  _36
REMARK   16  A    between atoms: _36  and  _37
REMARK   17  A    between atoms: _42  and  _44
REMARK   18  A    between atoms: _44  and  _45
REMARK   19  A    between atoms: _44  and  _47
REMARK   20  A    between atoms: _47  and  _48
REMARK   21  A    between atoms: _51  and  _53
REMARK   22  A    between atoms: _53  and  _54
REMARK   23  A    between atoms: _53  and  _56
REMARK   24  A    between atoms: _56  and  _57
REMARK   25  A    between atoms: _62  and  _63
REMARK   26  A    between atoms: _65  and  _67
REMARK   27  A    between atoms: _67  and  _68
REMARK   28  A    between atoms: _67  and  _70
REMARK   29  A    between atoms: _70  and  _71
REMARK   30  A    between atoms: _74  and  _76
REMARK   31  A    between atoms: _76  and  _77
REMARK   32  A    between atoms: _76  and  _79
REMARK   33  A    between atoms: _80  and  _81
REMARK   34  A    between atoms: _81  and  _82
REMARK   35  A    between atoms: _91  and  _93
REMARK   36  A    between atoms: _93  and  _94
REMARK   37  A    between atoms: _93  and  _96
REMARK   38  A    between atoms: _96  and  _97
REMARK   39  A    between atoms: _102  and  _103
REMARK   40  A    between atoms: _105  and  _107
REMARK   41  A    between atoms: _107  and  _108
REMARK   42  A    between atoms: _107  and  _110
REMARK   43  A    between atoms: _110  and  _111
REMARK   44  A    between atoms: _116  and  _117
REMARK   45  A    between atoms: _119  and  _121
REMARK   46  A    between atoms: _121  and  _122
REMARK   47  A    between atoms: _121  and  _124
REMARK   48  A    between atoms: _125  and  _126
REMARK   49  A    between atoms: _126  and  _127
REMARK   50  A    between atoms: _127  and  _128
REMARK   51  A    between atoms: _132  and  _134
REMARK   52  A    between atoms: _134  and  _135
REMARK   53  A    between atoms: _134  and  _137
REMARK   54  A    between atoms: _137  and  _138
REMARK   55  A    between atoms: _140  and  _142
REMARK   56  A    between atoms: _142  and  _143
REMARK   57  A    between atoms: _142  and  _145
REMARK   58  A    between atoms: _145  and  _146
REMARK   59  A    between atoms: _146  and  _147
REMARK   60  A    between atoms: _152  and  _154
REMARK   61  A    between atoms: _154  and  _155
REMARK   62  A    between atoms: _154  and  _157
REMARK   63  A    between atoms: _157  and  _158
REMARK   64  A    between atoms: _160  and  _162
REMARK   65  A    between atoms: _162  and  _163
REMARK   66  A    between atoms: _162  and  _165
REMARK   67  A    between atoms: _165  and  _166
REMARK   68  A    between atoms: _169  and  _171
REMARK   69  A    between atoms: _171  and  _172
REMARK   70  A    between atoms: _171  and  _174
REMARK   71  A    between atoms: _174  and  _175
REMARK   72  A    between atoms: _180  and  _182
REMARK   73  A    between atoms: _182  and  _183
REMARK   74  A    between atoms: _182  and  _185
REMARK   75  A    between atoms: _188  and  _190
REMARK   76  A    between atoms: _190  and  _191
REMARK   77  A    between atoms: _190  and  _193
REMARK   78  A    between atoms: _193  and  _194
REMARK   79  A    between atoms: _204  and  _206
REMARK   80  A    between atoms: _206  and  _207
REMARK   81  A    between atoms: _206  and  _209
REMARK   82  A    between atoms: _209  and  _210
REMARK   83  A    between atoms: _212  and  _214
REMARK   84  A    between atoms: _214  and  _215
REMARK   85  A    between atoms: _214  and  _217
REMARK   86  A    between atoms: _217  and  _218
REMARK   87  A    between atoms: _221  and  _223
REMARK   88  A    between atoms: _223  and  _224
REMARK   89  A    between atoms: _223  and  _226
REMARK   90  A    between atoms: _226  and  _227
REMARK   91  A    between atoms: _232  and  _233
REMARK   92  A    between atoms: _235  and  _237
REMARK   93  A    between atoms: _237  and  _238
REMARK   94  A    between atoms: _237  and  _240
REMARK   95  A    between atoms: _240  and  _241
REMARK   96  A    between atoms: _251  and  _253
REMARK   97  A    between atoms: _253  and  _254
REMARK   98  A    between atoms: _253  and  _256
REMARK   99  A    between atoms: _256  and  _257
REMARK  100  A    between atoms: _262  and  _264
REMARK  101  A    between atoms: _264  and  _265
REMARK  102  A    between atoms: _264  and  _267
REMARK  103  A    between atoms: _267  and  _268
REMARK  104  A    between atoms: _268  and  _269
REMARK  105  A    between atoms: _274  and  _276
REMARK  106  A    between atoms: _276  and  _277
REMARK  107  A    between atoms: _276  and  _279
REMARK  108  A    between atoms: _279  and  _280
REMARK  109  A    between atoms: _281  and  _282
REMARK  110  A    between atoms: _291  and  _293
REMARK  111  A    between atoms: _293  and  _294
REMARK  112  A    between atoms: _293  and  _296
REMARK  113  A    between atoms: _296  and  _297
REMARK  114  A    between atoms: _302  and  _304
REMARK  115  A    between atoms: _304  and  _305
REMARK  116  A    between atoms: _304  and  _307
REMARK  117  A    between atoms: _307  and  _308
REMARK  118  A    between atoms: _313  and  _314
REMARK  119  A    between atoms: _316  and  _318
REMARK  120  A    between atoms: _318  and  _319
REMARK  121  A    between atoms: _318  and  _321
REMARK  122  A    between atoms: _321  and  _322
REMARK  123  A    between atoms: _322  and  _323
REMARK  124  A    between atoms: _323  and  _324
REMARK  125  A    between atoms: _333  and  _335
REMARK  126  A    between atoms: _335  and  _336
REMARK  127  A    between atoms: _335  and  _338
REMARK  128  A    between atoms: _338  and  _339
REMARK  129  A    between atoms: _342  and  _344
REMARK  130  A    between atoms: _344  and  _345
REMARK  131  A    between atoms: _347  and  _349
REMARK  132  A    between atoms: _349  and  _350
REMARK  133  A    between atoms: _349  and  _352
REMARK  134  A    between atoms: _352  and  _353
REMARK  135  A    between atoms: _355  and  _357
REMARK  136  A    between atoms: _357  and  _358
REMARK  137  A    between atoms: _357  and  _360
REMARK  138  A    between atoms: _360  and  _361
REMARK  139  A    between atoms: _366  and  _367
REMARK  140  A    between atoms: _369  and  _371
REMARK  141  A    between atoms: _371  and  _372
REMARK  142  A    between atoms: _371  and  _374
REMARK  143  A    between atoms: _374  and  _375
REMARK  144  A    between atoms: _380  and  _381
REMARK  145  A    between atoms: _383  and  _385
REMARK  146  A    between atoms: _385  and  _386
REMARK  147  A    between atoms: _388  and  _390
REMARK  148  A    between atoms: _390  and  _391
REMARK  149  A    between atoms: _390  and  _393
REMARK  150  A    between atoms: _393  and  _394
REMARK  151  A    between atoms: _394  and  _395
REMARK  152  A    between atoms: _397  and  _399
REMARK  153  A    between atoms: _399  and  _400
REMARK  154  A    between atoms: _399  and  _402
REMARK  155  A    between atoms: _402  and  _403
REMARK                            x       y       z     vdW  Elec       q    Type
REMARK                         _______ _______ _______ _____ _____    ______ ____
ROOT
ATOM      1  C   SER A   3      26.003  15.802  39.479  0.00  0.00    +0.243 C 
ATOM      2  N   THR A   4      26.459  14.827  40.212  0.00  0.00    -0.295 N 
ATOM      3  H   THR A   4      26.154  13.852  40.017  0.00  0.00    +0.150 HD
ATOM      4  O   SER A   3      26.350  16.985  39.521  0.00  0.00    -0.273 OA
ENDROOT
BRANCH   2   5
ATOM      5  CA  THR A   4      27.406  15.088  41.320  0.00  0.00    +0.176 C 
BRANCH   5   6
ATOM      6  C   THR A   4      28.817  15.094  40.749  0.00  0.00    +0.243 C 
ATOM      7  O   THR A   4      29.580  15.995  41.115  0.00  0.00    -0.273 OA
ATOM      8  N   HIS A   5      29.123  14.165  39.870  0.00  0.00    -0.297 N 
ATOM      9  H   HIS A   5      28.363  13.503  39.612  0.00  0.00    +0.150 HD
BRANCH   8  10
ATOM     10  CA  HIS A   5      30.413  13.961  39.217  0.00  0.00    +0.155 C 
BRANCH  10  11
ATOM     11  C   HIS A   5      30.500  14.265  37.743  0.00  0.00    +0.241 C 
ATOM     12  N   VAL A   6      31.558  14.914  37.265  0.00  0.00    -0.298 N 
ATOM     13  H   VAL A   6      32.296  15.275  37.902  0.00  0.00    +0.150 HD
ATOM     14  O   HIS A   5      29.576  13.831  37.016  0.00  0.00    -0.273 OA
BRANCH  12  15
ATOM     15  CA  VAL A   6      31.657  15.110  35.784  0.00  0.00    +0.137 C 
BRANCH  15  16
ATOM     16  CB  VAL A   6      32.112  16.428  35.261  0.00  0.00    +0.026 C 
ATOM     17  CG2 VAL A   6      31.215  17.597  35.680  0.00  0.00    +0.002 C 
ATOM     18  CG1 VAL A   6      32.225  16.454  33.711  0.00  0.00    +0.002 C 
ENDBRANCH  15  16
BRANCH  15  19
ATOM     19  C   VAL A   6      32.382  13.843  35.271  0.00  0.00    +0.227 C 
ATOM     20  O   VAL A   6      33.305  13.320  35.917  0.00  0.00    -0.286 OA
ENDBRANCH  15  19
ENDBRANCH  12  15
ENDBRANCH  10  11
BRANCH  10  21
ATOM     21  CB  HIS A   5      30.799  12.418  39.279  0.00  0.00    +0.076 C 
BRANCH  21  22
ATOM     22  CG  HIS A   5      30.809  11.979  40.707  0.00  0.00    +0.082 A 
ATOM     23  CD2 HIS A   5      31.658  12.441  41.679  0.00  0.00    +0.115 A 
ATOM     24  NE2 HIS A   5      31.310  11.822  42.841  0.00  0.00    -0.221 NA
ATOM     25  CE1 HIS A   5      30.300  10.998  42.621  0.00  0.00    +0.199 A 
ATOM     26  ND1 HIS A   5      29.964  11.109  41.331  0.00  0.00    -0.227 NA
ENDBRANCH  21  22
ENDBRANCH  10  21
ENDBRANCH   8  10
ENDBRANCH   5   6
BRANCH   5  27
ATOM     27  CB  THR A   4      27.207  14.138  42.545  0.00  0.00    +0.137 C 
ATOM     28  CG2 THR A   4      28.292  14.093  43.599  0.00  0.00    +0.034 C 
BRANCH  27  29
ATOM     29  OG1 THR A   4      25.956  14.530  43.181  0.00  0.00    -0.382 OA
ATOM     30  HG1 THR A   4      25.791  13.950  43.966  0.00  0.00    +0.210 HD
ENDBRANCH  27  29
ENDBRANCH   5  27
ENDBRANCH   2   5
BRANCH   1  31
ATOM     31  CA  SER A   3      25.058  15.308  38.348  0.00  0.00    +0.178 C 
BRANCH  31  33
ATOM     32  C   GLN A   2      24.205  13.036  37.968  0.00  0.00    +0.241 C 
ATOM     33  N   SER A   3      24.392  14.081  38.743  0.00  0.00    -0.295 N 
ATOM     34  H   SER A   3      24.034  14.024  39.718  0.00  0.00    +0.150 HD
ATOM     35  O   GLN A   2      24.567  13.079  36.771  0.00  0.00    -0.273 OA
BRANCH  32  36
ATOM     36  CA  GLN A   2      23.481  11.862  38.619  0.00  0.00    +0.149 C 
BRANCH  36  39
ATOM     37  C   SER A   1      21.464  11.283  37.419  0.00  0.00    +0.241 C 
ATOM     38  O   SER A   1      20.664  11.730  38.256  0.00  0.00    -0.274 OA
ATOM     39  N   GLN A   2      22.745  11.205  37.494  0.00  0.00    -0.297 N 
ATOM     40  H   GLN A   2      23.274  10.681  36.767  0.00  0.00    +0.150 HD
BRANCH  37  41
ATOM     41  CA  SER A   1      20.784  10.672  36.171  0.00  0.00    +0.174 C 
BRANCH  41  42
ATOM     42  N   SER A   1      19.525  10.028  36.637  0.00  0.00    -0.236 NA
ATOM     43  H   SER A   1      19.069  10.391  37.498  0.00  0.00    +0.142 HD
ENDBRANCH  41  42
BRANCH  41  44
ATOM     44  CB  SER A   1      20.461  11.747  35.177  0.00  0.00    +0.163 C 
BRANCH  44  45
ATOM     45  OG  SER A   1      21.239  12.917  35.119  0.00  0.00    -0.380 OA
ATOM     46  H   SER A   1      20.886  13.512  34.411  0.00  0.00    +0.211 HD
ENDBRANCH  44  45
ENDBRANCH  41  44
ENDBRANCH  37  41
ENDBRANCH  36  39
BRANCH  36  47
ATOM     47  CB  GLN A   2      24.392  10.902  39.342  0.00  0.00    +0.039 C 
BRANCH  47  48
ATOM     48  CG  GLN A   2      25.525  10.332  38.513  0.00  0.00    +0.087 C 
BRANCH  48  49
ATOM     49  CD  GLN A   2      26.739  11.194  38.421  0.00  0.00    +0.219 C 
ATOM     50  OE1 GLN A   2      27.298  11.628  39.426  0.00  0.00    -0.275 OA
ATOM     51  NE2 GLN A   2      27.208  11.508  37.219  0.00  0.00    -0.329 N 
ATOM     52 HE21 GLN A   2      28.045  12.119  37.131  0.00  0.00    +0.145 HD
ATOM     53 HE22 GLN A   2      26.738  11.143  36.366  0.00  0.00    +0.145 HD
ENDBRANCH  48  49
ENDBRANCH  47  48
ENDBRANCH  36  47
ENDBRANCH  32  36
ENDBRANCH  31  33
BRANCH  31  54
ATOM     54  CB  SER A   3      24.104  16.360  37.867  0.00  0.00    +0.166 C 
BRANCH  54  55
ATOM     55  OG  SER A   3      23.036  16.529  38.762  0.00  0.00    -0.380 OA
ATOM     56  H   SER A   3      22.544  15.675  38.852  0.00  0.00    +0.211 HD
ENDBRANCH  54  55
ENDBRANCH  31  54
ENDBRANCH   1  31
TORSDOF 24
REMARK  Name = ../refined-set-2016/1flr/1flr_pocket.pdb
REMARK  155 active torsions:
REMARK  status: ('A' for Active; 'I' for Inactive)
REMARK    1  A    between atoms: _1  and  _3
REMARK    2  A    between atoms: _3  and  _4
REMARK    3  A    between atoms: _3  and  _6
REMARK    4  A    between atoms: _6  and  _7
REMARK    5  A    between atoms: _12  and  _14
REMARK    6  A    between atoms: _14  and  _15
REMARK    7  A    between atoms: _14  and  _17
REMARK    8  A    between atoms: _17  and  _18
REMARK    9  A    between atoms: _20  and  _22
REMARK   10  A    between atoms: _22  and  _23
REMARK   11  A    between atoms: _22  and  _25
REMARK   12  A    between atoms: _25  and  _26
REMARK   13  A    between atoms: _31  and  _33
REMARK   14  A    between atoms: _33  and  _34
REMARK   15  A    between atoms: _33  and  _36
REMARK   16  A    between atoms: _36  and  _37
REMARK   17  A    between atoms: _42  and  _44
REMARK   18  A    between atoms: _44  and  _45
REMARK   19  A    between atoms: _44  and  _47
REMARK   20  A    between atoms: _47  and  _48
REMARK   21  A    between atoms: _51  and  _53
REMARK   22  A    between atoms: _53  and  _54
REMARK   23  A    between atoms: _53  and  _56
REMARK   24  A    between atoms: _56  and  _57
REMARK   25  A    between atoms: _62  and  _63
REMARK   26  A    between atoms: _65  and  _67
REMARK   27  A    between atoms: _67  and  _68
REMARK   28  A    between atoms: _67  and  _70
REMARK   29  A    between atoms: _70  and  _71
REMARK   30  A    between atoms: _74  and  _76
REMARK   31  A    between atoms: _76  and  _77
REMARK   32  A    between atoms: _76  and  _79
REMARK   33  A    between atoms: _80  and  _81
REMARK   34  A    between atoms: _81  and  _82
REMARK   35  A    between atoms: _91  and  _93
REMARK   36  A    between atoms: _93  and  _94
REMARK   37  A    between atoms: _93  and  _96
REMARK   38  A    between atoms: _96  and  _97
REMARK   39  A    between atoms: _102  and  _103
REMARK   40  A    between atoms: _105  and  _107
REMARK   41  A    between atoms: _107  and  _108
REMARK   42  A    between atoms: _107  and  _110
REMARK   43  A    between atoms: _110  and  _111
REMARK   44  A    between atoms: _116  and  _117
REMARK   45  A    between atoms: _119  and  _121
REMARK   46  A    between atoms: _121  and  _122
REMARK   47  A    between atoms: _121  and  _124
REMARK   48  A    between atoms: _125  and  _126
REMARK   49  A    between atoms: _126  and  _127
REMARK   50  A    between atoms: _127  and  _128
REMARK   51  A    between atoms: _132  and  _134
REMARK   52  A    between atoms: _134  and  _135
REMARK   53  A    between atoms: _134  and  _137
REMARK   54  A    between atoms: _137  and  _138
REMARK   55  A    between atoms: _140  and  _142
REMARK   56  A    between atoms: _142  and  _143
REMARK   57  A    between atoms: _142  and  _145
REMARK   58  A    between atoms: _145  and  _146
REMARK   59  A    between atoms: _146  and  _147
REMARK   60  A    between atoms: _152  and  _154
REMARK   61  A    between atoms: _154  and  _155
REMARK   62  A    between atoms: _154  and  _157
REMARK   63  A    between atoms: _157  and  _158
REMARK   64  A    between atoms: _160  and  _162
REMARK   65  A    between atoms: _162  and  _163
REMARK   66  A    between atoms: _162  and  _165
REMARK   67  A    between atoms: _165  and  _166
REMARK   68  A    between atoms: _169  and  _171
REMARK   69  A    between atoms: _171  and  _172
REMARK   70  A    between atoms: _171  and  _174
REMARK   71  A    between atoms: _174  and  _175
REMARK   72  A    between atoms: _180  and  _182
REMARK   73  A    between atoms: _182  and  _183
REMARK   74  A    between atoms: _182  and  _185
REMARK   75  A    between atoms: _188  and  _190
REMARK   76  A    between atoms: _190  and  _191
REMARK   77  A    between atoms: _190  and  _193
REMARK   78  A    between atoms: _193  and  _194
REMARK   79  A    between atoms: _204  and  _206
REMARK   80  A    between atoms: _206  and  _207
REMARK   81  A    between atoms: _206  and  _209
REMARK   82  A    between atoms: _209  and  _210
REMARK   83  A    between atoms: _212  and  _214
REMARK   84  A    between atoms: _214  and  _215
REMARK   85  A    between atoms: _214  and  _217
REMARK   86  A    between atoms: _217  and  _218
REMARK   87  A    between atoms: _221  and  _223
REMARK   88  A    between atoms: _223  and  _224
REMARK   89  A    between atoms: _223  and  _226
REMARK   90  A    between atoms: _226  and  _227
REMARK   91  A    between atoms: _232  and  _233
REMARK   92  A    between atoms: _235  and  _237
REMARK   93  A    between atoms: _237  and  _238
REMARK   94  A    between atoms: _237  and  _240
REMARK   95  A    between atoms: _240  and  _241
REMARK   96  A    between atoms: _251  and  _253
REMARK   97  A    between atoms: _253  and  _254
REMARK   98  A    between atoms: _253  and  _256
REMARK   99  A    between atoms: _256  and  _257
REMARK  100  A    between atoms: _262  and  _264
REMARK  101  A    between atoms: _264  and  _265
REMARK  102  A    between atoms: _264  and  _267
REMARK  103  A    between atoms: _267  and  _268
REMARK  104  A    between atoms: _268  and  _269
REMARK  105  A    between atoms: _274  and  _276
REMARK  106  A    between atoms: _276  and  _277
REMARK  107  A    between atoms: _276  and  _279
REMARK  108  A    between atoms: _279  and  _280
REMARK  109  A    between atoms: _281  and  _282
REMARK  110  A    between atoms: _291  and  _293
REMARK  111  A    between atoms: _293  and  _294
REMARK  112  A    between atoms: _293  and  _296
REMARK  113  A    between atoms: _296  and  _297
REMARK  114  A    between atoms: _302  and  _304
REMARK  115  A    between atoms: _304  and  _305
REMARK  116  A    between atoms: _304  and  _307
REMARK  117  A    between atoms: _307  and  _308
REMARK  118  A    between atoms: _313  and  _314
REMARK  119  A    between atoms: _316  and  _318
REMARK  120  A    between atoms: _318  and  _319
REMARK  121  A    between atoms: _318  and  _321
REMARK  122  A    between atoms: _321  and  _322
REMARK  123  A    between atoms: _322  and  _323
REMARK  124  A    between atoms: _323  and  _324
REMARK  125  A    between atoms: _333  and  _335
REMARK  126  A    between atoms: _335  and  _336
REMARK  127  A    between atoms: _335  and  _338
REMARK  128  A    between atoms: _338  and  _339
REMARK  129  A    between atoms: _342  and  _344
REMARK  130  A    between atoms: _344  and  _345
REMARK  131  A    between atoms: _347  and  _349
REMARK  132  A    between atoms: _349  and  _350
REMARK  133  A    between atoms: _349  and  _352
REMARK  134  A    between atoms: _352  and  _353
REMARK  135  A    between atoms: _355  and  _357
REMARK  136  A    between atoms: _357  and  _358
REMARK  137  A    between atoms: _357  and  _360
REMARK  138  A    between atoms: _360  and  _361
REMARK  139  A    between atoms: _366  and  _367
REMARK  140  A    between atoms: _369  and  _371
REMARK  141  A    between atoms: _371  and  _372
REMARK  142  A    between atoms: _371  and  _374
REMARK  143  A    between atoms: _374  and  _375
REMARK  144  A    between atoms: _380  and  _381
REMARK  145  A    between atoms: _383  and  _385
REMARK  146  A    between atoms: _385  and  _386
REMARK  147  A    between atoms: _388  and  _390
REMARK  148  A    between atoms: _390  and  _391
REMARK  149  A    between atoms: _390  and  _393
REMARK  150  A    between atoms: _393  and  _394
REMARK  151  A    between atoms: _394  and  _395
REMARK  152  A    between atoms: _397  and  _399
REMARK  153  A    between atoms: _399  and  _400
REMARK  154  A    between atoms: _399  and  _402
REMARK  155  A    between atoms: _402  and  _403
REMARK                            x       y       z     vdW  Elec       q    Type
REMARK                         _______ _______ _______ _____ _____    ______ ____
ROOT
ATOM      1  CG  TRP A   1      26.400  16.186  34.895  0.00  0.00    -0.002 A 
ATOM      2  CD1 TRP A   1      27.441  16.389  35.751  0.00  0.00    +0.068 A 
ATOM      3  NE1 TRP A   1      27.323  17.671  36.285  0.00  0.00    -0.352 N 
ATOM      4  HE1 TRP A   1      27.996  18.105  36.949  0.00  0.00    +0.166 HD
ATOM      5  CE2 TRP A   1      26.197  18.273  35.810  0.00  0.00    +0.056 A 
ATOM      6  CZ2 TRP A   1      25.623  19.493  36.038  0.00  0.00    +0.017 A 
ATOM      7  CH2 TRP A   1      24.482  19.812  35.338  0.00  0.00    +0.001 A 
ATOM      8  CZ3 TRP A   1      23.864  18.923  34.460  0.00  0.00    +0.000 A 
ATOM      9  CE3 TRP A   1      24.426  17.707  34.229  0.00  0.00    +0.001 A 
ATOM     10  CD2 TRP A   1      25.616  17.380  34.872  0.00  0.00    +0.013 A 
ENDROOT
BRANCH   1  11
ATOM     11  CB  TRP A   1      26.117  15.000  34.022  0.00  0.00    +0.053 C 
BRANCH  11  12
ATOM     12  CA  TRP A   1      27.095  13.893  34.150  0.00  0.00    +0.137 C 
BRANCH  12  13
ATOM     13  N   TRP A   1      28.461  14.301  33.666  0.00  0.00    -0.239 NA
ATOM     14  H   TRP A   1      28.634  15.181  33.140  0.00  0.00    +0.142 HD
ENDBRANCH  12  13
BRANCH  12  15
ATOM     15  C   TRP A   1      26.773  12.614  33.365  0.00  0.00    +0.224 C 
ATOM     16  O   TRP A   1      27.170  12.416  32.208  0.00  0.00    -0.287 OA
ENDBRANCH  12  15
ENDBRANCH  11  12
ENDBRANCH   1  11
TORSDOF 4
REMARK  Name = ../refined-set-2016/1flr/1flr_pocket.pdb
REMARK  155 active torsions:
REMARK  status: ('A' for Active; 'I' for Inactive)
REMARK    1  A    between atoms: _1  and  _3
REMARK    2  A    between atoms: _3  and  _4
REMARK    3  A    between atoms: _3  and  _6
REMARK    4  A    between atoms: _6  and  _7
REMARK    5  A    between atoms: _12  and  _14
REMARK    6  A    between atoms: _14  and  _15
REMARK    7  A    between atoms: _14  and  _17
REMARK    8  A    between atoms: _17  and  _18
REMARK    9  A    between atoms: _20  and  _22
REMARK   10  A    between atoms: _22  and  _23
REMARK   11  A    between atoms: _22  and  _25
REMARK   12  A    between atoms: _25  and  _26
REMARK   13  A    between atoms: _31  and  _33
REMARK   14  A    between atoms: _33  and  _34
REMARK   15  A    between atoms: _33  and  _36
REMARK   16  A    between atoms: _36  and  _37
REMARK   17  A    between atoms: _42  and  _44
REMARK   18  A    between atoms: _44  and  _45
REMARK   19  A    between atoms: _44  and  _47
REMARK   20  A    between atoms: _47  and  _48
REMARK   21  A    between atoms: _51  and  _53
REMARK   22  A    between atoms: _53  and  _54
REMARK   23  A    between atoms: _53  and  _56
REMARK   24  A    between atoms: _56  and  _57
REMARK   25  A    between atoms: _62  and  _63
REMARK   26  A    between atoms: _65  and  _67
REMARK   27  A    between atoms: _67  and  _68
REMARK   28  A    between atoms: _67  and  _70
REMARK   29  A    between atoms: _70  and  _71
REMARK   30  A    between atoms: _74  and  _76
REMARK   31  A    between atoms: _76  and  _77
REMARK   32  A    between atoms: _76  and  _79
REMARK   33  A    between atoms: _80  and  _81
REMARK   34  A    between atoms: _81  and  _82
REMARK   35  A    between atoms: _91  and  _93
REMARK   36  A    between atoms: _93  and  _94
REMARK   37  A    between atoms: _93  and  _96
REMARK   38  A    between atoms: _96  and  _97
REMARK   39  A    between atoms: _102  and  _103
REMARK   40  A    between atoms: _105  and  _107
REMARK   41  A    between atoms: _107  and  _108
REMARK   42  A    between atoms: _107  and  _110
REMARK   43  A    between atoms: _110  and  _111
REMARK   44  A    between atoms: _116  and  _117
REMARK   45  A    between atoms: _119  and  _121
REMARK   46  A    between atoms: _121  and  _122
REMARK   47  A    between atoms: _121  and  _124
REMARK   48  A    between atoms: _125  and  _126
REMARK   49  A    between atoms: _126  and  _127
REMARK   50  A    between atoms: _127  and  _128
REMARK   51  A    between atoms: _132  and  _134
REMARK   52  A    between atoms: _134  and  _135
REMARK   53  A    between atoms: _134  and  _137
REMARK   54  A    between atoms: _137  and  _138
REMARK   55  A    between atoms: _140  and  _142
REMARK   56  A    between atoms: _142  and  _143
REMARK   57  A    between atoms: _142  and  _145
REMARK   58  A    between atoms: _145  and  _146
REMARK   59  A    between atoms: _146  and  _147
REMARK   60  A    between atoms: _152  and  _154
REMARK   61  A    between atoms: _154  and  _155
REMARK   62  A    between atoms: _154  and  _157
REMARK   63  A    between atoms: _157  and  _158
REMARK   64  A    between atoms: _160  and  _162
REMARK   65  A    between atoms: _162  and  _163
REMARK   66  A    between atoms: _162  and  _165
REMARK   67  A    between atoms: _165  and  _166
REMARK   68  A    between atoms: _169  and  _171
REMARK   69  A    between atoms: _171  and  _172
REMARK   70  A    between atoms: _171  and  _174
REMARK   71  A    between atoms: _174  and  _175
REMARK   72  A    between atoms: _180  and  _182
REMARK   73  A    between atoms: _182  and  _183
REMARK   74  A    between atoms: _182  and  _185
REMARK   75  A    between atoms: _188  and  _190
REMARK   76  A    between atoms: _190  and  _191
REMARK   77  A    between atoms: _190  and  _193
REMARK   78  A    between atoms: _193  and  _194
REMARK   79  A    between atoms: _204  and  _206
REMARK   80  A    between atoms: _206  and  _207
REMARK   81  A    between atoms: _206  and  _209
REMARK   82  A    between atoms: _209  and  _210
REMARK   83  A    between atoms: _212  and  _214
REMARK   84  A    between atoms: _214  and  _215
REMARK   85  A    between atoms: _214  and  _217
REMARK   86  A    between atoms: _217  and  _218
REMARK   87  A    between atoms: _221  and  _223
REMARK   88  A    between atoms: _223  and  _224
REMARK   89  A    between atoms: _223  and  _226
REMARK   90  A    between atoms: _226  and  _227
REMARK   91  A    between atoms: _232  and  _233
REMARK   92  A    between atoms: _235  and  _237
REMARK   93  A    between atoms: _237  and  _238
REMARK   94  A    between atoms: _237  and  _240
REMARK   95  A    between atoms: _240  and  _241
REMARK   96  A    between atoms: _251  and  _253
REMARK   97  A    between atoms: _253  and  _254
REMARK   98  A    between atoms: _253  and  _256
REMARK   99  A    between atoms: _256  and  _257
REMARK  100  A    between atoms: _262  and  _264
REMARK  101  A    between atoms: _264  and  _265
REMARK  102  A    between atoms: _264  and  _267
REMARK  103  A    between atoms: _267  and  _268
REMARK  104  A    between atoms: _268  and  _269
REMARK  105  A    between atoms: _274  and  _276
REMARK  106  A    between atoms: _276  and  _277
REMARK  107  A    between atoms: _276  and  _279
REMARK  108  A    between atoms: _279  and  _280
REMARK  109  A    between atoms: _281  and  _282
REMARK  110  A    between atoms: _291  and  _293
REMARK  111  A    between atoms: _293  and  _294
REMARK  112  A    between atoms: _293  and  _296
REMARK  113  A    between atoms: _296  and  _297
REMARK  114  A    between atoms: _302  and  _304
REMARK  115  A    between atoms: _304  and  _305
REMARK  116  A    between atoms: _304  and  _307
REMARK  117  A    between atoms: _307  and  _308
REMARK  118  A    between atoms: _313  and  _314
REMARK  119  A    between atoms: _316  and  _318
REMARK  120  A    between atoms: _318  and  _319
REMARK  121  A    between atoms: _318  and  _321
REMARK  122  A    between atoms: _321  and  _322
REMARK  123  A    between atoms: _322  and  _323
REMARK  124  A    between atoms: _323  and  _324
REMARK  125  A    between atoms: _333  and  _335
REMARK  126  A    between atoms: _335  and  _336
REMARK  127  A    between atoms: _335  and  _338
REMARK  128  A    between atoms: _338  and  _339
REMARK  129  A    between atoms: _342  and  _344
REMARK  130  A    between atoms: _344  and  _345
REMARK  131  A    between atoms: _347  and  _349
REMARK  132  A    between atoms: _349  and  _350
REMARK  133  A    between atoms: _349  and  _352
REMARK  134  A    between atoms: _352  and  _353
REMARK  135  A    between atoms: _355  and  _357
REMARK  136  A    between atoms: _357  and  _358
REMARK  137  A    between atoms: _357  and  _360
REMARK  138  A    between atoms: _360  and  _361
REMARK  139  A    between atoms: _366  and  _367
REMARK  140  A    between atoms: _369  and  _371
REMARK  141  A    between atoms: _371  and  _372
REMARK  142  A    between atoms: _371  and  _374
REMARK  143  A    between atoms: _374  and  _375
REMARK  144  A    between atoms: _380  and  _381
REMARK  145  A    between atoms: _383  and  _385
REMARK  146  A    between atoms: _385  and  _386
REMARK  147  A    between atoms: _388  and  _390
REMARK  148  A    between atoms: _390  and  _391
REMARK  149  A    between atoms: _390  and  _393
REMARK  150  A    between atoms: _393  and  _394
REMARK  151  A    between atoms: _394  and  _395
REMARK  152  A    between atoms: _397  and  _399
REMARK  153  A    between atoms: _399  and  _400
REMARK  154  A    between atoms: _399  and  _402
REMARK  155  A    between atoms: _402  and  _403
REMARK                            x       y       z     vdW  Elec       q    Type
REMARK                         _______ _______ _______ _____ _____    ______ ____
ROOT
ATOM      1  CA  TYR A   3      22.747  28.902  35.191  0.00  0.00    +0.153 C 
ENDROOT
BRANCH   1   4
ATOM      2  C   ASP A   2      23.112  30.657  36.837  0.00  0.00    +0.241 C 
ATOM      3  O   ASP A   2      23.364  29.848  37.758  0.00  0.00    -0.273 OA
ATOM      4  N   TYR A   3      22.831  30.310  35.596  0.00  0.00    -0.297 N 
ATOM      5  H   TYR A   3      22.665  31.052  34.887  0.00  0.00    +0.150 HD
BRANCH   2   6
ATOM      6  CA  ASP A   2      23.132  32.145  37.092  0.00  0.00    +0.160 C 
BRANCH   6   8
ATOM      7  C   SER A   1      24.188  33.380  35.179  0.00  0.00    +0.241 C 
ATOM      8  N   ASP A   2      23.141  32.993  35.890  0.00  0.00    -0.297 N 
ATOM      9  H   ASP A   2      22.214  33.329  35.559  0.00  0.00    +0.150 HD
ATOM     10  O   SER A   1      25.378  32.980  35.425  0.00  0.00    -0.274 OA
BRANCH   7  11
ATOM     11  CA  SER A   1      23.945  34.279  33.979  0.00  0.00    +0.174 C 
BRANCH  11  12
ATOM     12  N   SER A   1      22.685  34.104  33.267  0.00  0.00    -0.236 NA
ATOM     13  H   SER A   1      22.050  34.928  33.255  0.00  0.00    +0.142 HD
ENDBRANCH  11  12
BRANCH  11  14
ATOM     14  CB  SER A   1      24.090  35.774  34.348  0.00  0.00    +0.163 C 
BRANCH  14  15
ATOM     15  OG  SER A   1      23.264  36.579  33.503  0.00  0.00    -0.380 OA
ATOM     16  H   SER A   1      23.368  37.531  33.752  0.00  0.00    +0.211 HD
ENDBRANCH  14  15
ENDBRANCH  11  14
ENDBRANCH   7  11
ENDBRANCH   6   8
BRANCH   6  17
ATOM     17  CB  ASP A   2      21.925  32.536  37.965  0.00  0.00    +0.143 C 
BRANCH  17  18
ATOM     18  CG  ASP A   2      22.108  33.931  38.544  0.00  0.00    +0.367 C 
ATOM     19  OD2 ASP A   2      23.274  34.299  38.808  0.00  0.00    -0.246 OA
ATOM     20  OD1 ASP A   2      21.110  34.633  38.705  0.00  0.00    -0.246 OA
ENDBRANCH  17  18
ENDBRANCH   6  17
ENDBRANCH   2   6
ENDBRANCH   1   4
BRANCH   1  21
ATOM     21  C   TYR A   3      23.939  28.415  34.379  0.00  0.00    +0.241 C 
ATOM     22  N   TRP A   4      24.162  27.168  34.576  0.00  0.00    -0.302 N 
ATOM     23  H   TRP A   4      23.577  26.695  35.294  0.00  0.00    +0.150 HD
ATOM     24  O   TYR A   3      24.512  29.172  33.584  0.00  0.00    -0.273 OA
BRANCH  22  25
ATOM     25  CA  TRP A   4      25.155  26.348  33.892  0.00  0.00    +0.109 C 
BRANCH  25  26
ATOM     26  C   TRP A   4      24.353  25.926  32.627  0.00  0.00    +0.202 C 
ATOM     27  O   TRP A   4      23.117  25.826  32.823  0.00  0.00    -0.219 OA
ENDBRANCH  25  26
BRANCH  25  28
ATOM     28  CB  TRP A   4      25.487  25.192  34.757  0.00  0.00    +0.050 C 
BRANCH  28  29
ATOM     29  CG  TRP A   4      26.313  25.581  35.950  0.00  0.00    -0.002 A 
ATOM     30  CD2 TRP A   4      27.051  24.658  36.743  0.00  0.00    +0.013 A 
ATOM     31  CE2 TRP A   4      27.737  25.430  37.744  0.00  0.00    +0.056 A 
ATOM     32  CZ2 TRP A   4      28.526  24.802  38.661  0.00  0.00    +0.017 A 
ATOM     33  CH2 TRP A   4      28.628  23.448  38.662  0.00  0.00    +0.001 A 
ATOM     34  CZ3 TRP A   4      27.943  22.677  37.704  0.00  0.00    +0.000 A 
ATOM     35  NE1 TRP A   4      27.436  26.731  37.532  0.00  0.00    -0.352 N 
ATOM     36  HE1 TRP A   4      27.790  27.533  38.092  0.00  0.00    +0.166 HD
ATOM     37  CE3 TRP A   4      27.159  23.267  36.758  0.00  0.00    +0.001 A 
ATOM     38  CD1 TRP A   4      26.572  26.822  36.439  0.00  0.00    +0.068 A 
ENDBRANCH  28  29
ENDBRANCH  25  28
ENDBRANCH  22  25
ENDBRANCH   1  21
BRANCH   1  39
ATOM     39  CB  TYR A   3      21.548  28.779  34.241  0.00  0.00    +0.055 C 
BRANCH  39  40
ATOM     40  CG  TYR A   3      20.181  28.789  34.860  0.00  0.00    -0.020 A 
ATOM     41  CD2 TYR A   3      19.755  29.830  35.667  0.00  0.00    -0.001 A 
ATOM     42  CE2 TYR A   3      18.468  29.894  36.171  0.00  0.00    +0.036 A 
ATOM     43  CZ  TYR A   3      17.578  28.846  35.908  0.00  0.00    +0.134 A 
ATOM     44  CE1 TYR A   3      17.985  27.786  35.126  0.00  0.00    +0.036 A 
ATOM     45  CD1 TYR A   3      19.276  27.767  34.604  0.00  0.00    -0.001 A 
BRANCH  43  46
ATOM     46  OH  TYR A   3      16.312  28.870  36.431  0.00  0.00    -0.506 OA
ATOM     47  HH  TYR A   3      16.191  29.697  36.962  0.00  0.00    +0.292 HD
ENDBRANCH  43  46
ENDBRANCH  39  40
ENDBRANCH   1  39
TORSDOF 17
REMARK  Name = ../refined-set-2016/1flr/1flr_pocket.pdb
REMARK  155 active torsions:
REMARK  status: ('A' for Active; 'I' for Inactive)
REMARK    1  A    between atoms: _1  and  _3
REMARK    2  A    between atoms: _3  and  _4
REMARK    3  A    between atoms: _3  and  _6
REMARK    4  A    between atoms: _6  and  _7
REMARK    5  A    between atoms: _12  and  _14
REMARK    6  A    between atoms: _14  and  _15
REMARK    7  A    between atoms: _14  and  _17
REMARK    8  A    between atoms: _17  and  _18
REMARK    9  A    between atoms: _20  and  _22
REMARK   10  A    between atoms: _22  and  _23
REMARK   11  A    between atoms: _22  and  _25
REMARK   12  A    between atoms: _25  and  _26
REMARK   13  A    between atoms: _31  and  _33
REMARK   14  A    between atoms: _33  and  _34
REMARK   15  A    between atoms: _33  and  _36
REMARK   16  A    between atoms: _36  and  _37
REMARK   17  A    between atoms: _42  and  _44
REMARK   18  A    between atoms: _44  and  _45
REMARK   19  A    between atoms: _44  and  _47
REMARK   20  A    between atoms: _47  and  _48
REMARK   21  A    between atoms: _51  and  _53
REMARK   22  A    between atoms: _53  and  _54
REMARK   23  A    between atoms: _53  and  _56
REMARK   24  A    between atoms: _56  and  _57
REMARK   25  A    between atoms: _62  and  _63
REMARK   26  A    between atoms: _65  and  _67
REMARK   27  A    between atoms: _67  and  _68
REMARK   28  A    between atoms: _67  and  _70
REMARK   29  A    between atoms: _70  and  _71
REMARK   30  A    between atoms: _74  and  _76
REMARK   31  A    between atoms: _76  and  _77
REMARK   32  A    between atoms: _76  and  _79
REMARK   33  A    between atoms: _80  and  _81
REMARK   34  A    between atoms: _81  and  _82
REMARK   35  A    between atoms: _91  and  _93
REMARK   36  A    between atoms: _93  and  _94
REMARK   37  A    between atoms: _93  and  _96
REMARK   38  A    between atoms: _96  and  _97
REMARK   39  A    between atoms: _102  and  _103
REMARK   40  A    between atoms: _105  and  _107
REMARK   41  A    between atoms: _107  and  _108
REMARK   42  A    between atoms: _107  and  _110
REMARK   43  A    between atoms: _110  and  _111
REMARK   44  A    between atoms: _116  and  _117
REMARK   45  A    between atoms: _119  and  _121
REMARK   46  A    between atoms: _121  and  _122
REMARK   47  A    between atoms: _121  and  _124
REMARK   48  A    between atoms: _125  and  _126
REMARK   49  A    between atoms: _126  and  _127
REMARK   50  A    between atoms: _127  and  _128
REMARK   51  A    between atoms: _132  and  _134
REMARK   52  A    between atoms: _134  and  _135
REMARK   53  A    between atoms: _134  and  _137
REMARK   54  A    between atoms: _137  and  _138
REMARK   55  A    between atoms: _140  and  _142
REMARK   56  A    between atoms: _142  and  _143
REMARK   57  A    between atoms: _142  and  _145
REMARK   58  A    between atoms: _145  and  _146
REMARK   59  A    between atoms: _146  and  _147
REMARK   60  A    between atoms: _152  and  _154
REMARK   61  A    between atoms: _154  and  _155
REMARK   62  A    between atoms: _154  and  _157
REMARK   63  A    between atoms: _157  and  _158
REMARK   64  A    between atoms: _160  and  _162
REMARK   65  A    between atoms: _162  and  _163
REMARK   66  A    between atoms: _162  and  _165
REMARK   67  A    between atoms: _165  and  _166
REMARK   68  A    between atoms: _169  and  _171
REMARK   69  A    between atoms: _171  and  _172
REMARK   70  A    between atoms: _171  and  _174
REMARK   71  A    between atoms: _174  and  _175
REMARK   72  A    between atoms: _180  and  _182
REMARK   73  A    between atoms: _182  and  _183
REMARK   74  A    between atoms: _182  and  _185
REMARK   75  A    between atoms: _188  and  _190
REMARK   76  A    between atoms: _190  and  _191
REMARK   77  A    between atoms: _190  and  _193
REMARK   78  A    between atoms: _193  and  _194
REMARK   79  A    between atoms: _204  and  _206
REMARK   80  A    between atoms: _206  and  _207
REMARK   81  A    between atoms: _206  and  _209
REMARK   82  A    between atoms: _209  and  _210
REMARK   83  A    between atoms: _212  and  _214
REMARK   84  A    between atoms: _214  and  _215
REMARK   85  A    between atoms: _214  and  _217
REMARK   86  A    between atoms: _217  and  _218
REMARK   87  A    between atoms: _221  and  _223
REMARK   88  A    between atoms: _223  and  _224
REMARK   89  A    between atoms: _223  and  _226
REMARK   90  A    between atoms: _226  and  _227
REMARK   91  A    between atoms: _232  and  _233
REMARK   92  A    between atoms: _235  and  _237
REMARK   93  A    between atoms: _237  and  _238
REMARK   94  A    between atoms: _237  and  _240
REMARK   95  A    between atoms: _240  and  _241
REMARK   96  A    between atoms: _251  and  _253
REMARK   97  A    between atoms: _253  and  _254
REMARK   98  A    between atoms: _253  and  _256
REMARK   99  A    between atoms: _256  and  _257
REMARK  100  A    between atoms: _262  and  _264
REMARK  101  A    between atoms: _264  and  _265
REMARK  102  A    between atoms: _264  and  _267
REMARK  103  A    between atoms: _267  and  _268
REMARK  104  A    between atoms: _268  and  _269
REMARK  105  A    between atoms: _274  and  _276
REMARK  106  A    between atoms: _276  and  _277
REMARK  107  A    between atoms: _276  and  _279
REMARK  108  A    between atoms: _279  and  _280
REMARK  109  A    between atoms: _281  and  _282
REMARK  110  A    between atoms: _291  and  _293
REMARK  111  A    between atoms: _293  and  _294
REMARK  112  A    between atoms: _293  and  _296
REMARK  113  A    between atoms: _296  and  _297
REMARK  114  A    between atoms: _302  and  _304
REMARK  115  A    between atoms: _304  and  _305
REMARK  116  A    between atoms: _304  and  _307
REMARK  117  A    between atoms: _307  and  _308
REMARK  118  A    between atoms: _313  and  _314
REMARK  119  A    between atoms: _316  and  _318
REMARK  120  A    between atoms: _318  and  _319
REMARK  121  A    between atoms: _318  and  _321
REMARK  122  A    between atoms: _321  and  _322
REMARK  123  A    between atoms: _322  and  _323
REMARK  124  A    between atoms: _323  and  _324
REMARK  125  A    between atoms: _333  and  _335
REMARK  126  A    between atoms: _335  and  _336
REMARK  127  A    between atoms: _335  and  _338
REMARK  128  A    between atoms: _338  and  _339
REMARK  129  A    between atoms: _342  and  _344
REMARK  130  A    between atoms: _344  and  _345
REMARK  131  A    between atoms: _347  and  _349
REMARK  132  A    between atoms: _349  and  _350
REMARK  133  A    between atoms: _349  and  _352
REMARK  134  A    between atoms: _352  and  _353
REMARK  135  A    between atoms: _355  and  _357
REMARK  136  A    between atoms: _357  and  _358
REMARK  137  A    between atoms: _357  and  _360
REMARK  138  A    between atoms: _360  and  _361
REMARK  139  A    between atoms: _366  and  _367
REMARK  140  A    between atoms: _369  and  _371
REMARK  141  A    between atoms: _371  and  _372
REMARK  142  A    between atoms: _371  and  _374
REMARK  143  A    between atoms: _374  and  _375
REMARK  144  A    between atoms: _380  and  _381
REMARK  145  A    between atoms: _383  and  _385
REMARK  146  A    between atoms: _385  and  _386
REMARK  147  A    between atoms: _388  and  _390
REMARK  148  A    between atoms: _390  and  _391
REMARK  149  A    between atoms: _390  and  _393
REMARK  150  A    between atoms: _393  and  _394
REMARK  151  A    between atoms: _394  and  _395
REMARK  152  A    between atoms: _397  and  _399
REMARK  153  A    between atoms: _399  and  _400
REMARK  154  A    between atoms: _399  and  _402
REMARK  155  A    between atoms: _402  and  _403
REMARK                            x       y       z     vdW  Elec       q    Type
REMARK                         _______ _______ _______ _____ _____    ______ ____
ROOT
ATOM      1  CB  ASN A   1      24.392  20.775  29.722  0.00  0.00    +0.110 C 
ENDROOT
BRANCH   1   2
ATOM      2  CG  ASN A   1      24.695  20.964  31.184  0.00  0.00    +0.221 C 
ATOM      3  ND2 ASN A   1      23.761  21.628  31.887  0.00  0.00    -0.329 N 
ATOM      4 HD21 ASN A   1      23.863  21.734  32.917  0.00  0.00    +0.145 HD
ATOM      5 HD22 ASN A   1      22.937  22.036  31.401  0.00  0.00    +0.145 HD
ATOM      6  OD1 ASN A   1      25.681  20.473  31.744  0.00  0.00    -0.275 OA
ENDBRANCH   1   2
BRANCH   1   7
ATOM      7  CA  ASN A   1      24.626  21.906  28.740  0.00  0.00    +0.142 C 
BRANCH   7   8
ATOM      8  N   ASN A   1      24.095  23.213  29.152  0.00  0.00    -0.239 NA
ATOM      9  H   ASN A   1      23.110  23.466  28.936  0.00  0.00    +0.142 HD
ENDBRANCH   7   8
BRANCH   7  10
ATOM     10  C   ASN A   1      24.057  21.477  27.325  0.00  0.00    +0.225 C 
ATOM     11  O   ASN A   1      23.118  22.075  26.851  0.00  0.00    -0.287 OA
ENDBRANCH   7  10
ENDBRANCH   1   7
TORSDOF 4
REMARK  Name = ../refined-set-2016/1flr/1flr_pocket.pdb
REMARK  155 active torsions:
REMARK  status: ('A' for Active; 'I' for Inactive)
REMARK    1  A    between atoms: _1  and  _3
REMARK    2  A    between atoms: _3  and  _4
REMARK    3  A    between atoms: _3  and  _6
REMARK    4  A    between atoms: _6  and  _7
REMARK    5  A    between atoms: _12  and  _14
REMARK    6  A    between atoms: _14  and  _15
REMARK    7  A    between atoms: _14  and  _17
REMARK    8  A    between atoms: _17  and  _18
REMARK    9  A    between atoms: _20  and  _22
REMARK   10  A    between atoms: _22  and  _23
REMARK   11  A    between atoms: _22  and  _25
REMARK   12  A    between atoms: _25  and  _26
REMARK   13  A    between atoms: _31  and  _33
REMARK   14  A    between atoms: _33  and  _34
REMARK   15  A    between atoms: _33  and  _36
REMARK   16  A    between atoms: _36  and  _37
REMARK   17  A    between atoms: _42  and  _44
REMARK   18  A    between atoms: _44  and  _45
REMARK   19  A    between atoms: _44  and  _47
REMARK   20  A    between atoms: _47  and  _48
REMARK   21  A    between atoms: _51  and  _53
REMARK   22  A    between atoms: _53  and  _54
REMARK   23  A    between atoms: _53  and  _56
REMARK   24  A    between atoms: _56  and  _57
REMARK   25  A    between atoms: _62  and  _63
REMARK   26  A    between atoms: _65  and  _67
REMARK   27  A    between atoms: _67  and  _68
REMARK   28  A    between atoms: _67  and  _70
REMARK   29  A    between atoms: _70  and  _71
REMARK   30  A    between atoms: _74  and  _76
REMARK   31  A    between atoms: _76  and  _77
REMARK   32  A    between atoms: _76  and  _79
REMARK   33  A    between atoms: _80  and  _81
REMARK   34  A    between atoms: _81  and  _82
REMARK   35  A    between atoms: _91  and  _93
REMARK   36  A    between atoms: _93  and  _94
REMARK   37  A    between atoms: _93  and  _96
REMARK   38  A    between atoms: _96  and  _97
REMARK   39  A    between atoms: _102  and  _103
REMARK   40  A    between atoms: _105  and  _107
REMARK   41  A    between atoms: _107  and  _108
REMARK   42  A    between atoms: _107  and  _110
REMARK   43  A    between atoms: _110  and  _111
REMARK   44  A    between atoms: _116  and  _117
REMARK   45  A    between atoms: _119  and  _121
REMARK   46  A    between atoms: _121  and  _122
REMARK   47  A    between atoms: _121  and  _124
REMARK   48  A    between atoms: _125  and  _126
REMARK   49  A    between atoms: _126  and  _127
REMARK   50  A    between atoms: _127  and  _128
REMARK   51  A    between atoms: _132  and  _134
REMARK   52  A    between atoms: _134  and  _135
REMARK   53  A    between atoms: _134  and  _137
REMARK   54  A    between atoms: _137  and  _138
REMARK   55  A    between atoms: _140  and  _142
REMARK   56  A    between atoms: _142  and  _143
REMARK   57  A    between atoms: _142  and  _145
REMARK   58  A    between atoms: _145  and  _146
REMARK   59  A    between atoms: _146  and  _147
REMARK   60  A    between atoms: _152  and  _154
REMARK   61  A    between atoms: _154  and  _155
REMARK   62  A    between atoms: _154  and  _157
REMARK   63  A    between atoms: _157  and  _158
REMARK   64  A    between atoms: _160  and  _162
REMARK   65  A    between atoms: _162  and  _163
REMARK   66  A    between atoms: _162  and  _165
REMARK   67  A    between atoms: _165  and  _166
REMARK   68  A    between atoms: _169  and  _171
REMARK   69  A    between atoms: _171  and  _172
REMARK   70  A    between atoms: _171  and  _174
REMARK   71  A    between atoms: _174  and  _175
REMARK   72  A    between atoms: _180  and  _182
REMARK   73  A    between atoms: _182  and  _183
REMARK   74  A    between atoms: _182  and  _185
REMARK   75  A    between atoms: _188  and  _190
REMARK   76  A    between atoms: _190  and  _191
REMARK   77  A    between atoms: _190  and  _193
REMARK   78  A    between atoms: _193  and  _194
REMARK   79  A    between atoms: _204  and  _206
REMARK   80  A    between atoms: _206  and  _207
REMARK   81  A    between atoms: _206  and  _209
REMARK   82  A    between atoms: _209  and  _210
REMARK   83  A    between atoms: _212  and  _214
REMARK   84  A    between atoms: _214  and  _215
REMARK   85  A    between atoms: _214  and  _217
REMARK   86  A    between atoms: _217  and  _218
REMARK   87  A    between atoms: _221  and  _223
REMARK   88  A    between atoms: _223  and  _224
REMARK   89  A    between atoms: _223  and  _226
REMARK   90  A    between atoms: _226  and  _227
REMARK   91  A    between atoms: _232  and  _233
REMARK   92  A    between atoms: _235  and  _237
REMARK   93  A    between atoms: _237  and  _238
REMARK   94  A    between atoms: _237  and  _240
REMARK   95  A    between atoms: _240  and  _241
REMARK   96  A    between atoms: _251  and  _253
REMARK   97  A    between atoms: _253  and  _254
REMARK   98  A    between atoms: _253  and  _256
REMARK   99  A    between atoms: _256  and  _257
REMARK  100  A    between atoms: _262  and  _264
REMARK  101  A    between atoms: _264  and  _265
REMARK  102  A    between atoms: _264  and  _267
REMARK  103  A    between atoms: _267  and  _268
REMARK  104  A    between atoms: _268  and  _269
REMARK  105  A    between atoms: _274  and  _276
REMARK  106  A    between atoms: _276  and  _277
REMARK  107  A    between atoms: _276  and  _279
REMARK  108  A    between atoms: _279  and  _280
REMARK  109  A    between atoms: _281  and  _282
REMARK  110  A    between atoms: _291  and  _293
REMARK  111  A    between atoms: _293  and  _294
REMARK  112  A    between atoms: _293  and  _296
REMARK  113  A    between atoms: _296  and  _297
REMARK  114  A    between atoms: _302  and  _304
REMARK  115  A    between atoms: _304  and  _305
REMARK  116  A    between atoms: _304  and  _307
REMARK  117  A    between atoms: _307  and  _308
REMARK  118  A    between atoms: _313  and  _314
REMARK  119  A    between atoms: _316  and  _318
REMARK  120  A    between atoms: _318  and  _319
REMARK  121  A    between atoms: _318  and  _321
REMARK  122  A    between atoms: _321  and  _322
REMARK  123  A    between atoms: _322  and  _323
REMARK  124  A    between atoms: _323  and  _324
REMARK  125  A    between atoms: _333  and  _335
REMARK  126  A    between atoms: _335  and  _336
REMARK  127  A    between atoms: _335  and  _338
REMARK  128  A    between atoms: _338  and  _339
REMARK  129  A    between atoms: _342  and  _344
REMARK  130  A    between atoms: _344  and  _345
REMARK  131  A    between atoms: _347  and  _349
REMARK  132  A    between atoms: _349  and  _350
REMARK  133  A    between atoms: _349  and  _352
REMARK  134  A    between atoms: _352  and  _353
REMARK  135  A    between atoms: _355  and  _357
REMARK  136  A    between atoms: _357  and  _358
REMARK  137  A    between atoms: _357  and  _360
REMARK  138  A    between atoms: _360  and  _361
REMARK  139  A    between atoms: _366  and  _367
REMARK  140  A    between atoms: _369  and  _371
REMARK  141  A    between atoms: _371  and  _372
REMARK  142  A    between atoms: _371  and  _374
REMARK  143  A    between atoms: _374  and  _375
REMARK  144  A    between atoms: _380  and  _381
REMARK  145  A    between atoms: _383  and  _385
REMARK  146  A    between atoms: _385  and  _386
REMARK  147  A    between atoms: _388  and  _390
REMARK  148  A    between atoms: _390  and  _391
REMARK  149  A    between atoms: _390  and  _393
REMARK  150  A    between atoms: _393  and  _394
REMARK  151  A    between atoms: _394  and  _395
REMARK  152  A    between atoms: _397  and  _399
REMARK  153  A    between atoms: _399  and  _400
REMARK  154  A    between atoms: _399  and  _402
REMARK  155  A    between atoms: _402  and  _403
REMARK                            x       y       z     vdW  Elec       q    Type
REMARK                         _______ _______ _______ _____ _____    ______ ____
ROOT
ATOM      1  CB  GLN A   1      29.315  21.430  31.266  0.00  0.00    +0.035 C 
ENDROOT
BRANCH   1   2
ATOM      2  CA  GLN A   1      29.119  22.122  29.881  0.00  0.00    +0.134 C 
BRANCH   2   3
ATOM      3  N   GLN A   1      29.514  21.191  28.843  0.00  0.00    -0.239 NA
ATOM      4  H   GLN A   1      30.530  21.011  28.713  0.00  0.00    +0.142 HD
ENDBRANCH   2   3
BRANCH   2   5
ATOM      5  C   GLN A   1      29.911  23.441  29.943  0.00  0.00    +0.224 C 
ATOM      6  O   GLN A   1      31.129  23.375  29.904  0.00  0.00    -0.287 OA
ENDBRANCH   2   5
ENDBRANCH   1   2
BRANCH   1   7
ATOM      7  CG  GLN A   1      28.571  22.223  32.369  0.00  0.00    +0.087 C 
BRANCH   7   8
ATOM      8  CD  GLN A   1      28.562  21.400  33.621  0.00  0.00    +0.219 C 
ATOM      9  OE1 GLN A   1      29.430  21.409  34.461  0.00  0.00    -0.275 OA
ATOM     10  NE2 GLN A   1      27.541  20.529  33.695  0.00  0.00    -0.329 N 
ATOM     11 HE21 GLN A   1      27.491  19.852  34.483  0.00  0.00    +0.145 HD
ATOM     12 HE22 GLN A   1      26.801  20.532  32.965  0.00  0.00    +0.145 HD
ENDBRANCH   7   8
ENDBRANCH   1   7
TORSDOF 5
REMARK  Name = ../refined-set-2016/1flr/1flr_pocket.pdb
REMARK  155 active torsions:
REMARK  status: ('A' for Active; 'I' for Inactive)
REMARK    1  A    between atoms: _1  and  _3
REMARK    2  A    between atoms: _3  and  _4
REMARK    3  A    between atoms: _3  and  _6
REMARK    4  A    between atoms: _6  and  _7
REMARK    5  A    between atoms: _12  and  _14
REMARK    6  A    between atoms: _14  and  _15
REMARK    7  A    between atoms: _14  and  _17
REMARK    8  A    between atoms: _17  and  _18
REMARK    9  A    between atoms: _20  and  _22
REMARK   10  A    between atoms: _22  and  _23
REMARK   11  A    between atoms: _22  and  _25
REMARK   12  A    between atoms: _25  and  _26
REMARK   13  A    between atoms: _31  and  _33
REMARK   14  A    between atoms: _33  and  _34
REMARK   15  A    between atoms: _33  and  _36
REMARK   16  A    between atoms: _36  and  _37
REMARK   17  A    between atoms: _42  and  _44
REMARK   18  A    between atoms: _44  and  _45
REMARK   19  A    between atoms: _44  and  _47
REMARK   20  A    between atoms: _47  and  _48
REMARK   21  A    between atoms: _51  and  _53
REMARK   22  A    between atoms: _53  and  _54
REMARK   23  A    between atoms: _53  and  _56
REMARK   24  A    between atoms: _56  and  _57
REMARK   25  A    between atoms: _62  and  _63
REMARK   26  A    between atoms: _65  and  _67
REMARK   27  A    between atoms: _67  and  _68
REMARK   28  A    between atoms: _67  and  _70
REMARK   29  A    between atoms: _70  and  _71
REMARK   30  A    between atoms: _74  and  _76
REMARK   31  A    between atoms: _76  and  _77
REMARK   32  A    between atoms: _76  and  _79
REMARK   33  A    between atoms: _80  and  _81
REMARK   34  A    between atoms: _81  and  _82
REMARK   35  A    between atoms: _91  and  _93
REMARK   36  A    between atoms: _93  and  _94
REMARK   37  A    between atoms: _93  and  _96
REMARK   38  A    between atoms: _96  and  _97
REMARK   39  A    between atoms: _102  and  _103
REMARK   40  A    between atoms: _105  and  _107
REMARK   41  A    between atoms: _107  and  _108
REMARK   42  A    between atoms: _107  and  _110
REMARK   43  A    between atoms: _110  and  _111
REMARK   44  A    between atoms: _116  and  _117
REMARK   45  A    between atoms: _119  and  _121
REMARK   46  A    between atoms: _121  and  _122
REMARK   47  A    between atoms: _121  and  _124
REMARK   48  A    between atoms: _125  and  _126
REMARK   49  A    between atoms: _126  and  _127
REMARK   50  A    between atoms: _127  and  _128
REMARK   51  A    between atoms: _132  and  _134
REMARK   52  A    between atoms: _134  and  _135
REMARK   53  A    between atoms: _134  and  _137
REMARK   54  A    between atoms: _137  and  _138
REMARK   55  A    between atoms: _140  and  _142
REMARK   56  A    between atoms: _142  and  _143
REMARK   57  A    between atoms: _142  and  _145
REMARK   58  A    between atoms: _145  and  _146
REMARK   59  A    between atoms: _146  and  _147
REMARK   60  A    between atoms: _152  and  _154
REMARK   61  A    between atoms: _154  and  _155
REMARK   62  A    between atoms: _154  and  _157
REMARK   63  A    between atoms: _157  and  _158
REMARK   64  A    between atoms: _160  and  _162
REMARK   65  A    between atoms: _162  and  _163
REMARK   66  A    between atoms: _162  and  _165
REMARK   67  A    between atoms: _165  and  _166
REMARK   68  A    between atoms: _169  and  _171
REMARK   69  A    between atoms: _171  and  _172
REMARK   70  A    between atoms: _171  and  _174
REMARK   71  A    between atoms: _174  and  _175
REMARK   72  A    between atoms: _180  and  _182
REMARK   73  A    between atoms: _182  and  _183
REMARK   74  A    between atoms: _182  and  _185
REMARK   75  A    between atoms: _188  and  _190
REMARK   76  A    between atoms: _190  and  _191
REMARK   77  A    between atoms: _190  and  _193
REMARK   78  A    between atoms: _193  and  _194
REMARK   79  A    between atoms: _204  and  _206
REMARK   80  A    between atoms: _206  and  _207
REMARK   81  A    between atoms: _206  and  _209
REMARK   82  A    between atoms: _209  and  _210
REMARK   83  A    between atoms: _212  and  _214
REMARK   84  A    between atoms: _214  and  _215
REMARK   85  A    between atoms: _214  and  _217
REMARK   86  A    between atoms: _217  and  _218
REMARK   87  A    between atoms: _221  and  _223
REMARK   88  A    between atoms: _223  and  _224
REMARK   89  A    between atoms: _223  and  _226
REMARK   90  A    between atoms: _226  and  _227
REMARK   91  A    between atoms: _232  and  _233
REMARK   92  A    between atoms: _235  and  _237
REMARK   93  A    between atoms: _237  and  _238
REMARK   94  A    between atoms: _237  and  _240
REMARK   95  A    between atoms: _240  and  _241
REMARK   96  A    between atoms: _251  and  _253
REMARK   97  A    between atoms: _253  and  _254
REMARK   98  A    between atoms: _253  and  _256
REMARK   99  A    between atoms: _256  and  _257
REMARK  100  A    between atoms: _262  and  _264
REMARK  101  A    between atoms: _264  and  _265
REMARK  102  A    between atoms: _264  and  _267
REMARK  103  A    between atoms: _267  and  _268
REMARK  104  A    between atoms: _268  and  _269
REMARK  105  A    between atoms: _274  and  _276
REMARK  106  A    between atoms: _276  and  _277
REMARK  107  A    between atoms: _276  and  _279
REMARK  108  A    between atoms: _279  and  _280
REMARK  109  A    between atoms: _281  and  _282
REMARK  110  A    between atoms: _291  and  _293
REMARK  111  A    between atoms: _293  and  _294
REMARK  112  A    between atoms: _293  and  _296
REMARK  113  A    between atoms: _296  and  _297
REMARK  114  A    between atoms: _302  and  _304
REMARK  115  A    between atoms: _304  and  _305
REMARK  116  A    between atoms: _304  and  _307
REMARK  117  A    between atoms: _307  and  _308
REMARK  118  A    between atoms: _313  and  _314
REMARK  119  A    between atoms: _316  and  _318
REMARK  120  A    between atoms: _318  and  _319
REMARK  121  A    between atoms: _318  and  _321
REMARK  122  A    between atoms: _321  and  _322
REMARK  123  A    between atoms: _322  and  _323
REMARK  124  A    between atoms: _323  and  _324
REMARK  125  A    between atoms: _333  and  _335
REMARK  126  A    between atoms: _335  and  _336
REMARK  127  A    between atoms: _335  and  _338
REMARK  128  A    between atoms: _338  and  _339
REMARK  129  A    between atoms: _342  and  _344
REMARK  130  A    between atoms: _344  and  _345
REMARK  131  A    between atoms: _347  and  _349
REMARK  132  A    between atoms: _349  and  _350
REMARK  133  A    between atoms: _349  and  _352
REMARK  134  A    between atoms: _352  and  _353
REMARK  135  A    between atoms: _355  and  _357
REMARK  136  A    between atoms: _357  and  _358
REMARK  137  A    between atoms: _357  and  _360
REMARK  138  A    between atoms: _360  and  _361
REMARK  139  A    between atoms: _366  and  _367
REMARK  140  A    between atoms: _369  and  _371
REMARK  141  A    between atoms: _371  and  _372
REMARK  142  A    between atoms: _371  and  _374
REMARK  143  A    between atoms: _374  and  _375
REMARK  144  A    between atoms: _380  and  _381
REMARK  145  A    between atoms: _383  and  _385
REMARK  146  A    between atoms: _385  and  _386
REMARK  147  A    between atoms: _388  and  _390
REMARK  148  A    between atoms: _390  and  _391
REMARK  149  A    between atoms: _390  and  _393
REMARK  150  A    between atoms: _393  and  _394
REMARK  151  A    between atoms: _394  and  _395
REMARK  152  A    between atoms: _397  and  _399
REMARK  153  A    between atoms: _399  and  _400
REMARK  154  A    between atoms: _399  and  _402
REMARK  155  A    between atoms: _402  and  _403
REMARK                            x       y       z     vdW  Elec       q    Type
REMARK                         _______ _______ _______ _____ _____    ______ ____
ROOT
ATOM      1  CA  ARG A   1      29.535  27.300  33.837  0.00  0.00    +0.149 C 
ENDROOT
BRANCH   1   2
ATOM      2  C   ARG A   1      29.405  28.796  33.760  0.00  0.00    +0.239 C 
ATOM      3  N   ASN A   2      29.308  29.498  34.903  0.00  0.00    -0.298 N 
ATOM      4  H   ASN A   2      29.347  29.006  35.818  0.00  0.00    +0.150 HD
ATOM      5  O   ARG A   1      29.321  29.388  32.652  0.00  0.00    -0.274 OA
BRANCH   3   6
ATOM      6  CA  ASN A   2      29.146  30.966  34.862  0.00  0.00    +0.146 C 
BRANCH   6   7
ATOM      7  C   ASN A   2      30.325  31.685  35.514  0.00  0.00    +0.227 C 
ATOM      8  O   ASN A   2      31.308  31.000  35.875  0.00  0.00    -0.286 OA
ENDBRANCH   6   7
BRANCH   6   9
ATOM      9  CB  ASN A   2      27.766  31.355  35.367  0.00  0.00    +0.112 C 
BRANCH   9  10
ATOM     10  CG  ASN A   2      27.474  30.689  36.715  0.00  0.00    +0.222 C 
ATOM     11  ND2 ASN A   2      26.330  31.099  37.257  0.00  0.00    -0.329 N 
ATOM     12 HD21 ASN A   2      26.022  30.716  38.174  0.00  0.00    +0.145 HD
ATOM     13 HD22 ASN A   2      25.744  31.802  36.764  0.00  0.00    +0.145 HD
ATOM     14  OD1 ASN A   2      28.256  29.856  37.209  0.00  0.00    -0.275 OA
ENDBRANCH   9  10
ENDBRANCH   6   9
ENDBRANCH   3   6
ENDBRANCH   1   2
BRANCH   1  15
ATOM     15  N   ARG A   1      29.829  26.676  32.519  0.00  0.00    -0.238 NA
ATOM     16  H   ARG A   1      30.781  26.281  32.381  0.00  0.00    +0.142 HD
ENDBRANCH   1  15
BRANCH   1  17
ATOM     17  CB  ARG A   1      30.487  26.751  34.864  0.00  0.00    +0.055 C 
BRANCH  17  18
ATOM     18  CG  ARG A   1      30.487  25.273  35.036  0.00  0.00    +0.012 C 
ATOM     19  CD  ARG A   1      31.296  24.633  36.034  0.00  0.00    +0.143 C 
BRANCH  19  20
ATOM     20  NE  ARG A   1      31.173  23.270  36.377  0.00  0.00    -0.243 N 
ATOM     21  CZ  ARG A   1      31.585  22.447  37.316  0.00  0.00    +0.346 C 
ATOM     22  NH2 ARG A   1      32.323  22.793  38.381  0.00  0.00    -0.292 N 
ATOM     23 HH21 ARG A   1      32.604  22.072  39.076  0.00  0.00    +0.255 HD
ATOM     24 HH22 ARG A   1      32.614  23.783  38.512  0.00  0.00    +0.255 HD
ATOM     25  NH1 ARG A   1      31.344  21.120  37.189  0.00  0.00    -0.292 N 
ATOM     26 HH11 ARG A   1      31.666  20.460  37.926  0.00  0.00    +0.255 HD
ATOM     27 HH12 ARG A   1      30.837  20.761  36.355  0.00  0.00    +0.255 HD
ATOM     28  HE  ARG A   1      30.583  22.769  35.683  0.00  0.00    +0.265 HD
ENDBRANCH  19  20
ENDBRANCH  17  18
ENDBRANCH   1  17
TORSDOF 9
REMARK  Name = ../refined-set-2016/1flr/1flr_pocket.pdb
REMARK  155 active torsions:
REMARK  status: ('A' for Active; 'I' for Inactive)
REMARK    1  A    between atoms: _1  and  _3
REMARK    2  A    between atoms: _3  and  _4
REMARK    3  A    between atoms: _3  and  _6
REMARK    4  A    between atoms: _6  and  _7
REMARK    5  A    between atoms: _12  and  _14
REMARK    6  A    between atoms: _14  and  _15
REMARK    7  A    between atoms: _14  and  _17
REMARK    8  A    between atoms: _17  and  _18
REMARK    9  A    between atoms: _20  and  _22
REMARK   10  A    between atoms: _22  and  _23
REMARK   11  A    between atoms: _22  and  _25
REMARK   12  A    between atoms: _25  and  _26
REMARK   13  A    between atoms: _31  and  _33
REMARK   14  A    between atoms: _33  and  _34
REMARK   15  A    between atoms: _33  and  _36
REMARK   16  A    between atoms: _36  and  _37
REMARK   17  A    between atoms: _42  and  _44
REMARK   18  A    between atoms: _44  and  _45
REMARK   19  A    between atoms: _44  and  _47
REMARK   20  A    between atoms: _47  and  _48
REMARK   21  A    between atoms: _51  and  _53
REMARK   22  A    between atoms: _53  and  _54
REMARK   23  A    between atoms: _53  and  _56
REMARK   24  A    between atoms: _56  and  _57
REMARK   25  A    between atoms: _62  and  _63
REMARK   26  A    between atoms: _65  and  _67
REMARK   27  A    between atoms: _67  and  _68
REMARK   28  A    between atoms: _67  and  _70
REMARK   29  A    between atoms: _70  and  _71
REMARK   30  A    between atoms: _74  and  _76
REMARK   31  A    between atoms: _76  and  _77
REMARK   32  A    between atoms: _76  and  _79
REMARK   33  A    between atoms: _80  and  _81
REMARK   34  A    between atoms: _81  and  _82
REMARK   35  A    between atoms: _91  and  _93
REMARK   36  A    between atoms: _93  and  _94
REMARK   37  A    between atoms: _93  and  _96
REMARK   38  A    between atoms: _96  and  _97
REMARK   39  A    between atoms: _102  and  _103
REMARK   40  A    between atoms: _105  and  _107
REMARK   41  A    between atoms: _107  and  _108
REMARK   42  A    between atoms: _107  and  _110
REMARK   43  A    between atoms: _110  and  _111
REMARK   44  A    between atoms: _116  and  _117
REMARK   45  A    between atoms: _119  and  _121
REMARK   46  A    between atoms: _121  and  _122
REMARK   47  A    between atoms: _121  and  _124
REMARK   48  A    between atoms: _125  and  _126
REMARK   49  A    between atoms: _126  and  _127
REMARK   50  A    between atoms: _127  and  _128
REMARK   51  A    between atoms: _132  and  _134
REMARK   52  A    between atoms: _134  and  _135
REMARK   53  A    between atoms: _134  and  _137
REMARK   54  A    between atoms: _137  and  _138
REMARK   55  A    between atoms: _140  and  _142
REMARK   56  A    between atoms: _142  and  _143
REMARK   57  A    between atoms: _142  and  _145
REMARK   58  A    between atoms: _145  and  _146
REMARK   59  A    between atoms: _146  and  _147
REMARK   60  A    between atoms: _152  and  _154
REMARK   61  A    between atoms: _154  and  _155
REMARK   62  A    between atoms: _154  and  _157
REMARK   63  A    between atoms: _157  and  _158
REMARK   64  A    between atoms: _160  and  _162
REMARK   65  A    between atoms: _162  and  _163
REMARK   66  A    between atoms: _162  and  _165
REMARK   67  A    between atoms: _165  and  _166
REMARK   68  A    between atoms: _169  and  _171
REMARK   69  A    between atoms: _171  and  _172
REMARK   70  A    between atoms: _171  and  _174
REMARK   71  A    between atoms: _174  and  _175
REMARK   72  A    between atoms: _180  and  _182
REMARK   73  A    between atoms: _182  and  _183
REMARK   74  A    between atoms: _182  and  _185
REMARK   75  A    between atoms: _188  and  _190
REMARK   76  A    between atoms: _190  and  _191
REMARK   77  A    between atoms: _190  and  _193
REMARK   78  A    between atoms: _193  and  _194
REMARK   79  A    between atoms: _204  and  _206
REMARK   80  A    between atoms: _206  and  _207
REMARK   81  A    between atoms: _206  and  _209
REMARK   82  A    between atoms: _209  and  _210
REMARK   83  A    between atoms: _212  and  _214
REMARK   84  A    between atoms: _214  and  _215
REMARK   85  A    between atoms: _214  and  _217
REMARK   86  A    between atoms: _217  and  _218
REMARK   87  A    between atoms: _221  and  _223
REMARK   88  A    between atoms: _223  and  _224
REMARK   89  A    between atoms: _223  and  _226
REMARK   90  A    between atoms: _226  and  _227
REMARK   91  A    between atoms: _232  and  _233
REMARK   92  A    between atoms: _235  and  _237
REMARK   93  A    between atoms: _237  and  _238
REMARK   94  A    between atoms: _237  and  _240
REMARK   95  A    between atoms: _240  and  _241
REMARK   96  A    between atoms: _251  and  _253
REMARK   97  A    between atoms: _253  and  _254
REMARK   98  A    between atoms: _253  and  _256
REMARK   99  A    between atoms: _256  and  _257
REMARK  100  A    between atoms: _262  and  _264
REMARK  101  A    between atoms: _264  and  _265
REMARK  102  A    between atoms: _264  and  _267
REMARK  103  A    between atoms: _267  and  _268
REMARK  104  A    between atoms: _268  and  _269
REMARK  105  A    between atoms: _274  and  _276
REMARK  106  A    between atoms: _276  and  _277
REMARK  107  A    between atoms: _276  and  _279
REMARK  108  A    between atoms: _279  and  _280
REMARK  109  A    between atoms: _281  and  _282
REMARK  110  A    between atoms: _291  and  _293
REMARK  111  A    between atoms: _293  and  _294
REMARK  112  A    between atoms: _293  and  _296
REMARK  113  A    between atoms: _296  and  _297
REMARK  114  A    between atoms: _302  and  _304
REMARK  115  A    between atoms: _304  and  _305
REMARK  116  A    between atoms: _304  and  _307
REMARK  117  A    between atoms: _307  and  _308
REMARK  118  A    between atoms: _313  and  _314
REMARK  119  A    between atoms: _316  and  _318
REMARK  120  A    between atoms: _318  and  _319
REMARK  121  A    between atoms: _318  and  _321
REMARK  122  A    between atoms: _321  and  _322
REMARK  123  A    between atoms: _322  and  _323
REMARK  124  A    between atoms: _323  and  _324
REMARK  125  A    between atoms: _333  and  _335
REMARK  126  A    between atoms: _335  and  _336
REMARK  127  A    between atoms: _335  and  _338
REMARK  128  A    between atoms: _338  and  _339
REMARK  129  A    between atoms: _342  and  _344
REMARK  130  A    between atoms: _344  and  _345
REMARK  131  A    between atoms: _347  and  _349
REMARK  132  A    between atoms: _349  and  _350
REMARK  133  A    between atoms: _349  and  _352
REMARK  134  A    between atoms: _352  and  _353
REMARK  135  A    between atoms: _355  and  _357
REMARK  136  A    between atoms: _357  and  _358
REMARK  137  A    between atoms: _357  and  _360
REMARK  138  A    between atoms: _360  and  _361
REMARK  139  A    between atoms: _366  and  _367
REMARK  140  A    between atoms: _369  and  _371
REMARK  141  A    between atoms: _371  and  _372
REMARK  142  A    between atoms: _371  and  _374
REMARK  143  A    between atoms: _374  and  _375
REMARK  144  A    between atoms: _380  and  _381
REMARK  145  A    between atoms: _383  and  _385
REMARK  146  A    between atoms: _385  and  _386
REMARK  147  A    between atoms: _388  and  _390
REMARK  148  A    between atoms: _390  and  _391
REMARK  149  A    between atoms: _390  and  _393
REMARK  150  A    between atoms: _393  and  _394
REMARK  151  A    between atoms: _394  and  _395
REMARK  152  A    between atoms: _397  and  _399
REMARK  153  A    between atoms: _399  and  _400
REMARK  154  A    between atoms: _399  and  _402
REMARK  155  A    between atoms: _402  and  _403
REMARK                            x       y       z     vdW  Elec       q    Type
REMARK                         _______ _______ _______ _____ _____    ______ ____
ROOT
ATOM      1  CG  TYR A   1      30.819  27.948  39.499  0.00  0.00    -0.020 A 
ATOM      2  CD2 TYR A   1      31.191  26.964  40.405  0.00  0.00    -0.001 A 
ATOM      3  CE2 TYR A   1      30.408  26.755  41.551  0.00  0.00    +0.036 A 
ATOM      4  CZ  TYR A   1      29.235  27.505  41.725  0.00  0.00    +0.134 A 
ATOM      5  CE1 TYR A   1      28.847  28.478  40.828  0.00  0.00    +0.036 A 
ATOM      6  CD1 TYR A   1      29.658  28.685  39.704  0.00  0.00    -0.001 A 
ENDROOT
BRANCH   4   7
ATOM      7  OH  TYR A   1      28.503  27.202  42.860  0.00  0.00    -0.506 OA
ATOM      8  HH  TYR A   1      27.699  27.778  42.896  0.00  0.00    +0.292 HD
ENDBRANCH   4   7
BRANCH   1   9
ATOM      9  CB  TYR A   1      31.697  28.189  38.280  0.00  0.00    +0.051 C 
BRANCH   9  10
ATOM     10  CA  TYR A   1      32.689  29.347  38.449  0.00  0.00    +0.137 C 
BRANCH  10  11
ATOM     11  N   TYR A   1      31.967  30.620  38.647  0.00  0.00    -0.239 NA
ATOM     12  H   TYR A   1      31.296  30.942  37.921  0.00  0.00    +0.142 HD
ENDBRANCH  10  11
BRANCH  10  13
ATOM     13  C   TYR A   1      33.682  29.499  37.291  0.00  0.00    +0.224 C 
ATOM     14  O   TYR A   1      34.180  28.510  36.761  0.00  0.00    -0.287 OA
ENDBRANCH  10  13
ENDBRANCH   9  10
ENDBRANCH   1   9
TORSDOF 5
REMARK  Name = ../refined-set-2016/1flr/1flr_pocket.pdb
REMARK  155 active torsions:
REMARK  status: ('A' for Active; 'I' for Inactive)
REMARK    1  A    between atoms: _1  and  _3
REMARK    2  A    between atoms: _3  and  _4
REMARK    3  A    between atoms: _3  and  _6
REMARK    4  A    between atoms: _6  and  _7
REMARK    5  A    between atoms: _12  and  _14
REMARK    6  A    between atoms: _14  and  _15
REMARK    7  A    between atoms: _14  and  _17
REMARK    8  A    between atoms: _17  and  _18
REMARK    9  A    between atoms: _20  and  _22
REMARK   10  A    between atoms: _22  and  _23
REMARK   11  A    between atoms: _22  and  _25
REMARK   12  A    between atoms: _25  and  _26
REMARK   13  A    between atoms: _31  and  _33
REMARK   14  A    between atoms: _33  and  _34
REMARK   15  A    between atoms: _33  and  _36
REMARK   16  A    between atoms: _36  and  _37
REMARK   17  A    between atoms: _42  and  _44
REMARK   18  A    between atoms: _44  and  _45
REMARK   19  A    between atoms: _44  and  _47
REMARK   20  A    between atoms: _47  and  _48
REMARK   21  A    between atoms: _51  and  _53
REMARK   22  A    between atoms: _53  and  _54
REMARK   23  A    between atoms: _53  and  _56
REMARK   24  A    between atoms: _56  and  _57
REMARK   25  A    between atoms: _62  and  _63
REMARK   26  A    between atoms: _65  and  _67
REMARK   27  A    between atoms: _67  and  _68
REMARK   28  A    between atoms: _67  and  _70
REMARK   29  A    between atoms: _70  and  _71
REMARK   30  A    between atoms: _74  and  _76
REMARK   31  A    between atoms: _76  and  _77
REMARK   32  A    between atoms: _76  and  _79
REMARK   33  A    between atoms: _80  and  _81
REMARK   34  A    between atoms: _81  and  _82
REMARK   35  A    between atoms: _91  and  _93
REMARK   36  A    between atoms: _93  and  _94
REMARK   37  A    between atoms: _93  and  _96
REMARK   38  A    between atoms: _96  and  _97
REMARK   39  A    between atoms: _102  and  _103
REMARK   40  A    between atoms: _105  and  _107
REMARK   41  A    between atoms: _107  and  _108
REMARK   42  A    between atoms: _107  and  _110
REMARK   43  A    between atoms: _110  and  _111
REMARK   44  A    between atoms: _116  and  _117
REMARK   45  A    between atoms: _119  and  _121
REMARK   46  A    between atoms: _121  and  _122
REMARK   47  A    between atoms: _121  and  _124
REMARK   48  A    between atoms: _125  and  _126
REMARK   49  A    between atoms: _126  and  _127
REMARK   50  A    between atoms: _127  and  _128
REMARK   51  A    between atoms: _132  and  _134
REMARK   52  A    between atoms: _134  and  _135
REMARK   53  A    between atoms: _134  and  _137
REMARK   54  A    between atoms: _137  and  _138
REMARK   55  A    between atoms: _140  and  _142
REMARK   56  A    between atoms: _142  and  _143
REMARK   57  A    between atoms: _142  and  _145
REMARK   58  A    between atoms: _145  and  _146
REMARK   59  A    between atoms: _146  and  _147
REMARK   60  A    between atoms: _152  and  _154
REMARK   61  A    between atoms: _154  and  _155
REMARK   62  A    between atoms: _154  and  _157
REMARK   63  A    between atoms: _157  and  _158
REMARK   64  A    between atoms: _160  and  _162
REMARK   65  A    between atoms: _162  and  _163
REMARK   66  A    between atoms: _162  and  _165
REMARK   67  A    between atoms: _165  and  _166
REMARK   68  A    between atoms: _169  and  _171
REMARK   69  A    between atoms: _171  and  _172
REMARK   70  A    between atoms: _171  and  _174
REMARK   71  A    between atoms: _174  and  _175
REMARK   72  A    between atoms: _180  and  _182
REMARK   73  A    between atoms: _182  and  _183
REMARK   74  A    between atoms: _182  and  _185
REMARK   75  A    between atoms: _188  and  _190
REMARK   76  A    between atoms: _190  and  _191
REMARK   77  A    between atoms: _190  and  _193
REMARK   78  A    between atoms: _193  and  _194
REMARK   79  A    between atoms: _204  and  _206
REMARK   80  A    between atoms: _206  and  _207
REMARK   81  A    between atoms: _206  and  _209
REMARK   82  A    between atoms: _209  and  _210
REMARK   83  A    between atoms: _212  and  _214
REMARK   84  A    between atoms: _214  and  _215
REMARK   85  A    between atoms: _214  and  _217
REMARK   86  A    between atoms: _217  and  _218
REMARK   87  A    between atoms: _221  and  _223
REMARK   88  A    between atoms: _223  and  _224
REMARK   89  A    between atoms: _223  and  _226
REMARK   90  A    between atoms: _226  and  _227
REMARK   91  A    between atoms: _232  and  _233
REMARK   92  A    between atoms: _235  and  _237
REMARK   93  A    between atoms: _237  and  _238
REMARK   94  A    between atoms: _237  and  _240
REMARK   95  A    between atoms: _240  and  _241
REMARK   96  A    between atoms: _251  and  _253
REMARK   97  A    between atoms: _253  and  _254
REMARK   98  A    between atoms: _253  and  _256
REMARK   99  A    between atoms: _256  and  _257
REMARK  100  A    between atoms: _262  and  _264
REMARK  101  A    between atoms: _264  and  _265
REMARK  102  A    between atoms: _264  and  _267
REMARK  103  A    between atoms: _267  and  _268
REMARK  104  A    between atoms: _268  and  _269
REMARK  105  A    between atoms: _274  and  _276
REMARK  106  A    between atoms: _276  and  _277
REMARK  107  A    between atoms: _276  and  _279
REMARK  108  A    between atoms: _279  and  _280
REMARK  109  A    between atoms: _281  and  _282
REMARK  110  A    between atoms: _291  and  _293
REMARK  111  A    between atoms: _293  and  _294
REMARK  112  A    between atoms: _293  and  _296
REMARK  113  A    between atoms: _296  and  _297
REMARK  114  A    between atoms: _302  and  _304
REMARK  115  A    between atoms: _304  and  _305
REMARK  116  A    between atoms: _304  and  _307
REMARK  117  A    between atoms: _307  and  _308
REMARK  118  A    between atoms: _313  and  _314
REMARK  119  A    between atoms: _316  and  _318
REMARK  120  A    between atoms: _318  and  _319
REMARK  121  A    between atoms: _318  and  _321
REMARK  122  A    between atoms: _321  and  _322
REMARK  123  A    between atoms: _322  and  _323
REMARK  124  A    between atoms: _323  and  _324
REMARK  125  A    between atoms: _333  and  _335
REMARK  126  A    between atoms: _335  and  _336
REMARK  127  A    between atoms: _335  and  _338
REMARK  128  A    between atoms: _338  and  _339
REMARK  129  A    between atoms: _342  and  _344
REMARK  130  A    between atoms: _344  and  _345
REMARK  131  A    between atoms: _347  and  _349
REMARK  132  A    between atoms: _349  and  _350
REMARK  133  A    between atoms: _349  and  _352
REMARK  134  A    between atoms: _352  and  _353
REMARK  135  A    between atoms: _355  and  _357
REMARK  136  A    between atoms: _357  and  _358
REMARK  137  A    between atoms: _357  and  _360
REMARK  138  A    between atoms: _360  and  _361
REMARK  139  A    between atoms: _366  and  _367
REMARK  140  A    between atoms: _369  and  _371
REMARK  141  A    between atoms: _371  and  _372
REMARK  142  A    between atoms: _371  and  _374
REMARK  143  A    between atoms: _374  and  _375
REMARK  144  A    between atoms: _380  and  _381
REMARK  145  A    between atoms: _383  and  _385
REMARK  146  A    between atoms: _385  and  _386
REMARK  147  A    between atoms: _388  and  _390
REMARK  148  A    between atoms: _390  and  _391
REMARK  149  A    between atoms: _390  and  _393
REMARK  150  A    between atoms: _393  and  _394
REMARK  151  A    between atoms: _394  and  _395
REMARK  152  A    between atoms: _397  and  _399
REMARK  153  A    between atoms: _399  and  _400
REMARK  154  A    between atoms: _399  and  _402
REMARK  155  A    between atoms: _402  and  _403
REMARK                            x       y       z     vdW  Elec       q    Type
REMARK                         _______ _______ _______ _____ _____    ______ ____
ROOT
ATOM      1  NE  ARG A   1      26.836  31.295  30.047  0.00  0.00    -0.265 N 
ATOM      2  CZ  ARG A   1      26.306  30.725  31.141  0.00  0.00    +0.342 C 
ATOM      3  NH2 ARG A   1      26.993  29.806  31.812  0.00  0.00    -0.292 N 
ATOM      4 HH21 ARG A   1      26.582  29.365  32.659  0.00  0.00    +0.255 HD
ATOM      5 HH22 ARG A   1      27.942  29.528  31.490  0.00  0.00    +0.255 HD
ATOM      6  NH1 ARG A   1      25.110  31.078  31.576  0.00  0.00    -0.292 N 
ATOM      7 HH11 ARG A   1      24.712  30.628  32.425  0.00  0.00    +0.255 HD
ATOM      8 HH12 ARG A   1      24.566  31.806  31.070  0.00  0.00    +0.255 HD
ATOM      9  HE  ARG A   1      26.346  32.077  29.567  0.00  0.00    +0.259 HD
ENDROOT
BRANCH   1  10
ATOM     10  CD  ARG A   1      28.116  30.797  29.542  0.00  0.00    +0.174 C 
BRANCH  10  11
ATOM     11  CG  ARG A   1      28.397  31.263  28.175  0.00  0.00    +0.045 C 
BRANCH  11  12
ATOM     12  CB  ARG A   1      27.145  31.488  27.328  0.00  0.00    +0.029 C 
BRANCH  12  13
ATOM     13  CA  ARG A   1      27.446  31.815  25.855  0.00  0.00    +0.133 C 
BRANCH  13  14
ATOM     14  N   ARG A   1      28.686  31.133  25.403  0.00  0.00    -0.239 NA
ATOM     15  H   ARG A   1      29.625  31.545  25.574  0.00  0.00    +0.142 HD
ENDBRANCH  13  14
BRANCH  13  16
ATOM     16  C   ARG A   1      27.503  33.303  25.563  0.00  0.00    +0.224 C 
ATOM     17  O   ARG A   1      28.537  33.951  25.463  0.00  0.00    -0.287 OA
ENDBRANCH  13  16
ENDBRANCH  12  13
ENDBRANCH  11  12
ENDBRANCH  10  11
ENDBRANCH   1  10
TORSDOF 6
REMARK  Name = ../refined-set-2016/1flr/1flr_pocket.pdb
REMARK  155 active torsions:
REMARK  status: ('A' for Active; 'I' for Inactive)
REMARK    1  A    between atoms: _1  and  _3
REMARK    2  A    between atoms: _3  and  _4
REMARK    3  A    between atoms: _3  and  _6
REMARK    4  A    between atoms: _6  and  _7
REMARK    5  A    between atoms: _12  and  _14
REMARK    6  A    between atoms: _14  and  _15
REMARK    7  A    between atoms: _14  and  _17
REMARK    8  A    between atoms: _17  and  _18
REMARK    9  A    between atoms: _20  and  _22
REMARK   10  A    between atoms: _22  and  _23
REMARK   11  A    between atoms: _22  and  _25
REMARK   12  A    between atoms: _25  and  _26
REMARK   13  A    between atoms: _31  and  _33
REMARK   14  A    between atoms: _33  and  _34
REMARK   15  A    between atoms: _33  and  _36
REMARK   16  A    between atoms: _36  and  _37
REMARK   17  A    between atoms: _42  and  _44
REMARK   18  A    between atoms: _44  and  _45
REMARK   19  A    between atoms: _44  and  _47
REMARK   20  A    between atoms: _47  and  _48
REMARK   21  A    between atoms: _51  and  _53
REMARK   22  A    between atoms: _53  and  _54
REMARK   23  A    between atoms: _53  and  _56
REMARK   24  A    between atoms: _56  and  _57
REMARK   25  A    between atoms: _62  and  _63
REMARK   26  A    between atoms: _65  and  _67
REMARK   27  A    between atoms: _67  and  _68
REMARK   28  A    between atoms: _67  and  _70
REMARK   29  A    between atoms: _70  and  _71
REMARK   30  A    between atoms: _74  and  _76
REMARK   31  A    between atoms: _76  and  _77
REMARK   32  A    between atoms: _76  and  _79
REMARK   33  A    between atoms: _80  and  _81
REMARK   34  A    between atoms: _81  and  _82
REMARK   35  A    between atoms: _91  and  _93
REMARK   36  A    between atoms: _93  and  _94
REMARK   37  A    between atoms: _93  and  _96
REMARK   38  A    between atoms: _96  and  _97
REMARK   39  A    between atoms: _102  and  _103
REMARK   40  A    between atoms: _105  and  _107
REMARK   41  A    between atoms: _107  and  _108
REMARK   42  A    between atoms: _107  and  _110
REMARK   43  A    between atoms: _110  and  _111
REMARK   44  A    between atoms: _116  and  _117
REMARK   45  A    between atoms: _119  and  _121
REMARK   46  A    between atoms: _121  and  _122
REMARK   47  A    between atoms: _121  and  _124
REMARK   48  A    between atoms: _125  and  _126
REMARK   49  A    between atoms: _126  and  _127
REMARK   50  A    between atoms: _127  and  _128
REMARK   51  A    between atoms: _132  and  _134
REMARK   52  A    between atoms: _134  and  _135
REMARK   53  A    between atoms: _134  and  _137
REMARK   54  A    between atoms: _137  and  _138
REMARK   55  A    between atoms: _140  and  _142
REMARK   56  A    between atoms: _142  and  _143
REMARK   57  A    between atoms: _142  and  _145
REMARK   58  A    between atoms: _145  and  _146
REMARK   59  A    between atoms: _146  and  _147
REMARK   60  A    between atoms: _152  and  _154
REMARK   61  A    between atoms: _154  and  _155
REMARK   62  A    between atoms: _154  and  _157
REMARK   63  A    between atoms: _157  and  _158
REMARK   64  A    between atoms: _160  and  _162
REMARK   65  A    between atoms: _162  and  _163
REMARK   66  A    between atoms: _162  and  _165
REMARK   67  A    between atoms: _165  and  _166
REMARK   68  A    between atoms: _169  and  _171
REMARK   69  A    between atoms: _171  and  _172
REMARK   70  A    between atoms: _171  and  _174
REMARK   71  A    between atoms: _174  and  _175
REMARK   72  A    between atoms: _180  and  _182
REMARK   73  A    between atoms: _182  and  _183
REMARK   74  A    between atoms: _182  and  _185
REMARK   75  A    between atoms: _188  and  _190
REMARK   76  A    between atoms: _190  and  _191
REMARK   77  A    between atoms: _190  and  _193
REMARK   78  A    between atoms: _193  and  _194
REMARK   79  A    between atoms: _204  and  _206
REMARK   80  A    between atoms: _206  and  _207
REMARK   81  A    between atoms: _206  and  _209
REMARK   82  A    between atoms: _209  and  _210
REMARK   83  A    between atoms: _212  and  _214
REMARK   84  A    between atoms: _214  and  _215
REMARK   85  A    between atoms: _214  and  _217
REMARK   86  A    between atoms: _217  and  _218
REMARK   87  A    between atoms: _221  and  _223
REMARK   88  A    between atoms: _223  and  _224
REMARK   89  A    between atoms: _223  and  _226
REMARK   90  A    between atoms: _226  and  _227
REMARK   91  A    between atoms: _232  and  _233
REMARK   92  A    between atoms: _235  and  _237
REMARK   93  A    between atoms: _237  and  _238
REMARK   94  A    between atoms: _237  and  _240
REMARK   95  A    between atoms: _240  and  _241
REMARK   96  A    between atoms: _251  and  _253
REMARK   97  A    between atoms: _253  and  _254
REMARK   98  A    between atoms: _253  and  _256
REMARK   99  A    between atoms: _256  and  _257
REMARK  100  A    between atoms: _262  and  _264
REMARK  101  A    between atoms: _264  and  _265
REMARK  102  A    between atoms: _264  and  _267
REMARK  103  A    between atoms: _267  and  _268
REMARK  104  A    between atoms: _268  and  _269
REMARK  105  A    between atoms: _274  and  _276
REMARK  106  A    between atoms: _276  and  _277
REMARK  107  A    between atoms: _276  and  _279
REMARK  108  A    between atoms: _279  and  _280
REMARK  109  A    between atoms: _281  and  _282
REMARK  110  A    between atoms: _291  and  _293
REMARK  111  A    between atoms: _293  and  _294
REMARK  112  A    between atoms: _293  and  _296
REMARK  113  A    between atoms: _296  and  _297
REMARK  114  A    between atoms: _302  and  _304
REMARK  115  A    between atoms: _304  and  _305
REMARK  116  A    between atoms: _304  and  _307
REMARK  117  A    between atoms: _307  and  _308
REMARK  118  A    between atoms: _313  and  _314
REMARK  119  A    between atoms: _316  and  _318
REMARK  120  A    between atoms: _318  and  _319
REMARK  121  A    between atoms: _318  and  _321
REMARK  122  A    between atoms: _321  and  _322
REMARK  123  A    between atoms: _322  and  _323
REMARK  124  A    between atoms: _323  and  _324
REMARK  125  A    between atoms: _333  and  _335
REMARK  126  A    between atoms: _335  and  _336
REMARK  127  A    between atoms: _335  and  _338
REMARK  128  A    between atoms: _338  and  _339
REMARK  129  A    between atoms: _342  and  _344
REMARK  130  A    between atoms: _344  and  _345
REMARK  131  A    between atoms: _347  and  _349
REMARK  132  A    between atoms: _349  and  _350
REMARK  133  A    between atoms: _349  and  _352
REMARK  134  A    between atoms: _352  and  _353
REMARK  135  A    between atoms: _355  and  _357
REMARK  136  A    between atoms: _357  and  _358
REMARK  137  A    between atoms: _357  and  _360
REMARK  138  A    between atoms: _360  and  _361
REMARK  139  A    between atoms: _366  and  _367
REMARK  140  A    between atoms: _369  and  _371
REMARK  141  A    between atoms: _371  and  _372
REMARK  142  A    between atoms: _371  and  _374
REMARK  143  A    between atoms: _374  and  _375
REMARK  144  A    between atoms: _380  and  _381
REMARK  145  A    between atoms: _383  and  _385
REMARK  146  A    between atoms: _385  and  _386
REMARK  147  A    between atoms: _388  and  _390
REMARK  148  A    between atoms: _390  and  _391
REMARK  149  A    between atoms: _390  and  _393
REMARK  150  A    between atoms: _393  and  _394
REMARK  151  A    between atoms: _394  and  _395
REMARK  152  A    between atoms: _397  and  _399
REMARK  153  A    between atoms: _399  and  _400
REMARK  154  A    between atoms: _399  and  _402
REMARK  155  A    between atoms: _402  and  _403
REMARK                            x       y       z     vdW  Elec       q    Type
REMARK                         _______ _______ _______ _____ _____    ______ ____
ROOT
ATOM      1  C   TYR A   4      20.093  24.856  39.883  0.00  0.00    +0.241 C 
ATOM      2  N   TYR A   5      21.023  24.763  40.763  0.00  0.00    -0.297 N 
ATOM      3  H   TYR A   5      21.992  25.043  40.510  0.00  0.00    +0.150 HD
ATOM      4  O   TYR A   4      18.887  24.554  40.018  0.00  0.00    -0.273 OA
ENDROOT
BRANCH   2   5
ATOM      5  CA  TYR A   5      20.746  24.263  42.139  0.00  0.00    +0.153 C 
BRANCH   5   6
ATOM      6  C   TYR A   5      19.955  22.990  42.067  0.00  0.00    +0.241 C 
ATOM      7  O   TYR A   5      18.804  23.020  42.566  0.00  0.00    -0.273 OA
ATOM      8  N   GLY A   6      20.499  21.958  41.472  0.00  0.00    -0.295 N 
ATOM      9  H   GLY A   6      21.454  22.128  41.096  0.00  0.00    +0.150 HD
BRANCH   8  10
ATOM     10  CA  GLY A   6      20.011  20.668  41.258  0.00  0.00    +0.176 C 
BRANCH  10  11
ATOM     11  C   GLY A   6      18.948  20.345  40.195  0.00  0.00    +0.243 C 
ATOM     12  O   GLY A   6      18.882  19.102  39.988  0.00  0.00    -0.273 OA
ATOM     13  N   MET A   7      18.234  21.314  39.744  0.00  0.00    -0.297 N 
ATOM     14  H   MET A   7      18.454  22.258  40.121  0.00  0.00    +0.150 HD
BRANCH  13  15
ATOM     15  CA  MET A   7      17.162  21.252  38.776  0.00  0.00    +0.149 C 
BRANCH  15  16
ATOM     16  C   MET A   7      17.750  21.373  37.337  0.00  0.00    +0.241 C 
ATOM     17  O   MET A   7      18.876  21.844  37.208  0.00  0.00    -0.273 OA
ATOM     18  N   ASP A   8      16.932  20.990  36.392  0.00  0.00    -0.298 N 
ATOM     19  H   ASP A   8      15.968  20.683  36.635  0.00  0.00    +0.150 HD
BRANCH  18  20
ATOM     20  CA  ASP A   8      17.381  20.990  34.939  0.00  0.00    +0.148 C 
BRANCH  20  21
ATOM     21  C   ASP A   8      16.216  21.232  34.037  0.00  0.00    +0.227 C 
ATOM     22  O   ASP A   8      15.135  20.617  34.209  0.00  0.00    -0.286 OA
ENDBRANCH  20  21
BRANCH  20  23
ATOM     23  CB  ASP A   8      18.121  19.685  34.771  0.00  0.00    +0.142 C 
BRANCH  23  24
ATOM     24  CG  ASP A   8      19.065  19.505  33.608  0.00  0.00    +0.367 C 
ATOM     25  OD2 ASP A   8      19.726  20.504  33.268  0.00  0.00    -0.246 OA
ATOM     26  OD1 ASP A   8      19.291  18.429  32.999  0.00  0.00    -0.246 OA
ENDBRANCH  23  24
ENDBRANCH  20  23
ENDBRANCH  18  20
ENDBRANCH  15  16
BRANCH  15  27
ATOM     27  CB  MET A   7      16.133  22.308  38.943  0.00  0.00    +0.041 C 
BRANCH  27  28
ATOM     28  CG  MET A   7      14.706  21.952  39.058  0.00  0.00    +0.060 C 
BRANCH  28  29
ATOM     29  SD  MET A   7      14.102  20.530  38.135  0.00  0.00    -0.139 S 
ATOM     30  CE  MET A   7      12.909  21.225  37.015  0.00  0.00    +0.069 C 
ENDBRANCH  28  29
ENDBRANCH  27  28
ENDBRANCH  15  27
ENDBRANCH  13  15
ENDBRANCH  10  11
ENDBRANCH   8  10
ENDBRANCH   5   6
BRANCH   5  31
ATOM     31  CB  TYR A   5      19.833  25.329  42.847  0.00  0.00    +0.055 C 
BRANCH  31  32
ATOM     32  CG  TYR A   5      20.576  26.494  43.510  0.00  0.00    -0.020 A 
ATOM     33  CD2 TYR A   5      21.433  26.373  44.596  0.00  0.00    -0.001 A 
ATOM     34  CE2 TYR A   5      22.111  27.463  45.173  0.00  0.00    +0.036 A 
ATOM     35  CZ  TYR A   5      21.863  28.713  44.601  0.00  0.00    +0.134 A 
ATOM     36  CE1 TYR A   5      21.014  28.876  43.509  0.00  0.00    +0.036 A 
ATOM     37  CD1 TYR A   5      20.347  27.780  42.956  0.00  0.00    -0.001 A 
BRANCH  35  38
ATOM     38  OH  TYR A   5      22.463  29.851  45.062  0.00  0.00    -0.506 OA
ATOM     39  HH  TYR A   5      23.042  29.628  45.834  0.00  0.00    +0.292 HD
ENDBRANCH  35  38
ENDBRANCH  31  32
ENDBRANCH   5  31
ENDBRANCH   2   5
BRANCH   1  40
ATOM     40  CA  TYR A   4      20.521  25.425  38.540  0.00  0.00    +0.153 C 
BRANCH  40  42
ATOM     41  C   SER A   3      21.075  24.686  36.280  0.00  0.00    +0.243 C 
ATOM     42  N   TYR A   4      20.421  24.453  37.427  0.00  0.00    -0.297 N 
ATOM     43  H   TYR A   4      19.846  23.593  37.535  0.00  0.00    +0.150 HD
ATOM     44  O   SER A   3      21.865  25.644  36.177  0.00  0.00    -0.273 OA
BRANCH  41  45
ATOM     45  CA  SER A   3      20.929  23.709  35.128  0.00  0.00    +0.178 C 
BRANCH  45  47
ATOM     46  C   GLY A   2      19.710  24.394  33.095  0.00  0.00    +0.243 C 
ATOM     47  N   SER A   3      20.805  24.348  33.784  0.00  0.00    -0.295 N 
ATOM     48  H   SER A   3      21.655  24.785  33.374  0.00  0.00    +0.150 HD
ATOM     49  O   GLY A   2      18.618  23.928  33.496  0.00  0.00    -0.273 OA
BRANCH  46  50
ATOM     50  CA  GLY A   2      19.765  25.025  31.687  0.00  0.00    +0.176 C 
BRANCH  50  52
ATOM     51  C   THR A   1      20.360  23.346  29.902  0.00  0.00    +0.241 C 
ATOM     52  N   GLY A   2      19.519  23.947  30.725  0.00  0.00    -0.295 N 
ATOM     53  H   GLY A   2      18.538  23.605  30.684  0.00  0.00    +0.150 HD
ATOM     54  O   THR A   1      21.530  23.715  29.749  0.00  0.00    -0.274 OA
BRANCH  51  55
ATOM     55  CA  THR A   1      19.764  22.185  29.083  0.00  0.00    +0.172 C 
BRANCH  55  56
ATOM     56  N   THR A   1      20.219  22.209  27.682  0.00  0.00    -0.236 NA
ATOM     57  H   THR A   1      21.238  22.263  27.483  0.00  0.00    +0.142 HD
ENDBRANCH  55  56
BRANCH  55  58
ATOM     58  CB  THR A   1      19.967  20.785  29.731  0.00  0.00    +0.135 C 
ATOM     59  CG2 THR A   1      20.082  19.573  28.784  0.00  0.00    +0.034 C 
BRANCH  58  60
ATOM     60  OG1 THR A   1      21.110  20.748  30.602  0.00  0.00    -0.383 OA
ATOM     61  HG1 THR A   1      21.199  19.841  30.990  0.00  0.00    +0.210 HD
ENDBRANCH  58  60
ENDBRANCH  55  58
ENDBRANCH  51  55
ENDBRANCH  50  52
ENDBRANCH  46  50
ENDBRANCH  45  47
BRANCH  45  62
ATOM     62  CB  SER A   3      22.157  22.843  35.024  0.00  0.00    +0.166 C 
BRANCH  62  63
ATOM     63  OG  SER A   3      21.947  21.627  34.462  0.00  0.00    -0.380 OA
ATOM     64  H   SER A   3      21.601  21.745  33.542  0.00  0.00    +0.211 HD
ENDBRANCH  62  63
ENDBRANCH  45  62
ENDBRANCH  41  45
ENDBRANCH  40  42
BRANCH  40  65
ATOM     65  CB  TYR A   4      19.526  26.567  38.246  0.00  0.00    +0.055 C 
BRANCH  65  66
ATOM     66  CG  TYR A   4      19.529  27.789  39.102  0.00  0.00    -0.020 A 
ATOM     67  CD2 TYR A   4      18.337  28.234  39.692  0.00  0.00    -0.001 A 
ATOM     68  CE2 TYR A   4      18.276  29.396  40.457  0.00  0.00    +0.036 A 
ATOM     69  CZ  TYR A   4      19.440  30.132  40.648  0.00  0.00    +0.134 A 
ATOM     70  CE1 TYR A   4      20.638  29.734  40.047  0.00  0.00    +0.036 A 
ATOM     71  CD1 TYR A   4      20.679  28.562  39.290  0.00  0.00    -0.001 A 
BRANCH  69  72
ATOM     72  OH  TYR A   4      19.371  31.258  41.426  0.00  0.00    -0.506 OA
ATOM     73  HH  TYR A   4      18.727  31.895  41.026  0.00  0.00    +0.292 HD
ENDBRANCH  69  72
ENDBRANCH  65  66
ENDBRANCH  40  65
ENDBRANCH   1  40
TORSDOF 31
REMARK  Name = ../refined-set-2016/1flr/1flr_pocket.pdb
REMARK  155 active torsions:
REMARK  status: ('A' for Active; 'I' for Inactive)
REMARK    1  A    between atoms: _1  and  _3
REMARK    2  A    between atoms: _3  and  _4
REMARK    3  A    between atoms: _3  and  _6
REMARK    4  A    between atoms: _6  and  _7
REMARK    5  A    between atoms: _12  and  _14
REMARK    6  A    between atoms: _14  and  _15
REMARK    7  A    between atoms: _14  and  _17
REMARK    8  A    between atoms: _17  and  _18
REMARK    9  A    between atoms: _20  and  _22
REMARK   10  A    between atoms: _22  and  _23
REMARK   11  A    between atoms: _22  and  _25
REMARK   12  A    between atoms: _25  and  _26
REMARK   13  A    between atoms: _31  and  _33
REMARK   14  A    between atoms: _33  and  _34
REMARK   15  A    between atoms: _33  and  _36
REMARK   16  A    between atoms: _36  and  _37
REMARK   17  A    between atoms: _42  and  _44
REMARK   18  A    between atoms: _44  and  _45
REMARK   19  A    between atoms: _44  and  _47
REMARK   20  A    between atoms: _47  and  _48
REMARK   21  A    between atoms: _51  and  _53
REMARK   22  A    between atoms: _53  and  _54
REMARK   23  A    between atoms: _53  and  _56
REMARK   24  A    between atoms: _56  and  _57
REMARK   25  A    between atoms: _62  and  _63
REMARK   26  A    between atoms: _65  and  _67
REMARK   27  A    between atoms: _67  and  _68
REMARK   28  A    between atoms: _67  and  _70
REMARK   29  A    between atoms: _70  and  _71
REMARK   30  A    between atoms: _74  and  _76
REMARK   31  A    between atoms: _76  and  _77
REMARK   32  A    between atoms: _76  and  _79
REMARK   33  A    between atoms: _80  and  _81
REMARK   34  A    between atoms: _81  and  _82
REMARK   35  A    between atoms: _91  and  _93
REMARK   36  A    between atoms: _93  and  _94
REMARK   37  A    between atoms: _93  and  _96
REMARK   38  A    between atoms: _96  and  _97
REMARK   39  A    between atoms: _102  and  _103
REMARK   40  A    between atoms: _105  and  _107
REMARK   41  A    between atoms: _107  and  _108
REMARK   42  A    between atoms: _107  and  _110
REMARK   43  A    between atoms: _110  and  _111
REMARK   44  A    between atoms: _116  and  _117
REMARK   45  A    between atoms: _119  and  _121
REMARK   46  A    between atoms: _121  and  _122
REMARK   47  A    between atoms: _121  and  _124
REMARK   48  A    between atoms: _125  and  _126
REMARK   49  A    between atoms: _126  and  _127
REMARK   50  A    between atoms: _127  and  _128
REMARK   51  A    between atoms: _132  and  _134
REMARK   52  A    between atoms: _134  and  _135
REMARK   53  A    between atoms: _134  and  _137
REMARK   54  A    between atoms: _137  and  _138
REMARK   55  A    between atoms: _140  and  _142
REMARK   56  A    between atoms: _142  and  _143
REMARK   57  A    between atoms: _142  and  _145
REMARK   58  A    between atoms: _145  and  _146
REMARK   59  A    between atoms: _146  and  _147
REMARK   60  A    between atoms: _152  and  _154
REMARK   61  A    between atoms: _154  and  _155
REMARK   62  A    between atoms: _154  and  _157
REMARK   63  A    between atoms: _157  and  _158
REMARK   64  A    between atoms: _160  and  _162
REMARK   65  A    between atoms: _162  and  _163
REMARK   66  A    between atoms: _162  and  _165
REMARK   67  A    between atoms: _165  and  _166
REMARK   68  A    between atoms: _169  and  _171
REMARK   69  A    between atoms: _171  and  _172
REMARK   70  A    between atoms: _171  and  _174
REMARK   71  A    between atoms: _174  and  _175
REMARK   72  A    between atoms: _180  and  _182
REMARK   73  A    between atoms: _182  and  _183
REMARK   74  A    between atoms: _182  and  _185
REMARK   75  A    between atoms: _188  and  _190
REMARK   76  A    between atoms: _190  and  _191
REMARK   77  A    between atoms: _190  and  _193
REMARK   78  A    between atoms: _193  and  _194
REMARK   79  A    between atoms: _204  and  _206
REMARK   80  A    between atoms: _206  and  _207
REMARK   81  A    between atoms: _206  and  _209
REMARK   82  A    between atoms: _209  and  _210
REMARK   83  A    between atoms: _212  and  _214
REMARK   84  A    between atoms: _214  and  _215
REMARK   85  A    between atoms: _214  and  _217
REMARK   86  A    between atoms: _217  and  _218
REMARK   87  A    between atoms: _221  and  _223
REMARK   88  A    between atoms: _223  and  _224
REMARK   89  A    between atoms: _223  and  _226
REMARK   90  A    between atoms: _226  and  _227
REMARK   91  A    between atoms: _232  and  _233
REMARK   92  A    between atoms: _235  and  _237
REMARK   93  A    between atoms: _237  and  _238
REMARK   94  A    between atoms: _237  and  _240
REMARK   95  A    between atoms: _240  and  _241
REMARK   96  A    between atoms: _251  and  _253
REMARK   97  A    between atoms: _253  and  _254
REMARK   98  A    between atoms: _253  and  _256
REMARK   99  A    between atoms: _256  and  _257
REMARK  100  A    between atoms: _262  and  _264
REMARK  101  A    between atoms: _264  and  _265
REMARK  102  A    between atoms: _264  and  _267
REMARK  103  A    between atoms: _267  and  _268
REMARK  104  A    between atoms: _268  and  _269
REMARK  105  A    between atoms: _274  and  _276
REMARK  106  A    between atoms: _276  and  _277
REMARK  107  A    between atoms: _276  and  _279
REMARK  108  A    between atoms: _279  and  _280
REMARK  109  A    between atoms: _281  and  _282
REMARK  110  A    between atoms: _291  and  _293
REMARK  111  A    between atoms: _293  and  _294
REMARK  112  A    between atoms: _293  and  _296
REMARK  113  A    between atoms: _296  and  _297
REMARK  114  A    between atoms: _302  and  _304
REMARK  115  A    between atoms: _304  and  _305
REMARK  116  A    between atoms: _304  and  _307
REMARK  117  A    between atoms: _307  and  _308
REMARK  118  A    between atoms: _313  and  _314
REMARK  119  A    between atoms: _316  and  _318
REMARK  120  A    between atoms: _318  and  _319
REMARK  121  A    between atoms: _318  and  _321
REMARK  122  A    between atoms: _321  and  _322
REMARK  123  A    between atoms: _322  and  _323
REMARK  124  A    between atoms: _323  and  _324
REMARK  125  A    between atoms: _333  and  _335
REMARK  126  A    between atoms: _335  and  _336
REMARK  127  A    between atoms: _335  and  _338
REMARK  128  A    between atoms: _338  and  _339
REMARK  129  A    between atoms: _342  and  _344
REMARK  130  A    between atoms: _344  and  _345
REMARK  131  A    between atoms: _347  and  _349
REMARK  132  A    between atoms: _349  and  _350
REMARK  133  A    between atoms: _349  and  _352
REMARK  134  A    between atoms: _352  and  _353
REMARK  135  A    between atoms: _355  and  _357
REMARK  136  A    between atoms: _357  and  _358
REMARK  137  A    between atoms: _357  and  _360
REMARK  138  A    between atoms: _360  and  _361
REMARK  139  A    between atoms: _366  and  _367
REMARK  140  A    between atoms: _369  and  _371
REMARK  141  A    between atoms: _371  and  _372
REMARK  142  A    between atoms: _371  and  _374
REMARK  143  A    between atoms: _374  and  _375
REMARK  144  A    between atoms: _380  and  _381
REMARK  145  A    between atoms: _383  and  _385
REMARK  146  A    between atoms: _385  and  _386
REMARK  147  A    between atoms: _388  and  _390
REMARK  148  A    between atoms: _390  and  _391
REMARK  149  A    between atoms: _390  and  _393
REMARK  150  A    between atoms: _393  and  _394
REMARK  151  A    between atoms: _394  and  _395
REMARK  152  A    between atoms: _397  and  _399
REMARK  153  A    between atoms: _399  and  _400
REMARK  154  A    between atoms: _399  and  _402
REMARK  155  A    between atoms: _402  and  _403
REMARK                            x       y       z     vdW  Elec       q    Type
REMARK                         _______ _______ _______ _____ _____    ______ ____
ROOT
ATOM      1  O   HOH     1      19.504  16.781  41.134  0.00  0.00    +0.000 OA
ENDROOT
TORSDOF 0
REMARK  Name = ../refined-set-2016/1flr/1flr_pocket.pdb
REMARK  155 active torsions:
REMARK  status: ('A' for Active; 'I' for Inactive)
REMARK    1  A    between atoms: _1  and  _3
REMARK    2  A    between atoms: _3  and  _4
REMARK    3  A    between atoms: _3  and  _6
REMARK    4  A    between atoms: _6  and  _7
REMARK    5  A    between atoms: _12  and  _14
REMARK    6  A    between atoms: _14  and  _15
REMARK    7  A    between atoms: _14  and  _17
REMARK    8  A    between atoms: _17  and  _18
REMARK    9  A    between atoms: _20  and  _22
REMARK   10  A    between atoms: _22  and  _23
REMARK   11  A    between atoms: _22  and  _25
REMARK   12  A    between atoms: _25  and  _26
REMARK   13  A    between atoms: _31  and  _33
REMARK   14  A    between atoms: _33  and  _34
REMARK   15  A    between atoms: _33  and  _36
REMARK   16  A    between atoms: _36  and  _37
REMARK   17  A    between atoms: _42  and  _44
REMARK   18  A    between atoms: _44  and  _45
REMARK   19  A    between atoms: _44  and  _47
REMARK   20  A    between atoms: _47  and  _48
REMARK   21  A    between atoms: _51  and  _53
REMARK   22  A    between atoms: _53  and  _54
REMARK   23  A    between atoms: _53  and  _56
REMARK   24  A    between atoms: _56  and  _57
REMARK   25  A    between atoms: _62  and  _63
REMARK   26  A    between atoms: _65  and  _67
REMARK   27  A    between atoms: _67  and  _68
REMARK   28  A    between atoms: _67  and  _70
REMARK   29  A    between atoms: _70  and  _71
REMARK   30  A    between atoms: _74  and  _76
REMARK   31  A    between atoms: _76  and  _77
REMARK   32  A    between atoms: _76  and  _79
REMARK   33  A    between atoms: _80  and  _81
REMARK   34  A    between atoms: _81  and  _82
REMARK   35  A    between atoms: _91  and  _93
REMARK   36  A    between atoms: _93  and  _94
REMARK   37  A    between atoms: _93  and  _96
REMARK   38  A    between atoms: _96  and  _97
REMARK   39  A    between atoms: _102  and  _103
REMARK   40  A    between atoms: _105  and  _107
REMARK   41  A    between atoms: _107  and  _108
REMARK   42  A    between atoms: _107  and  _110
REMARK   43  A    between atoms: _110  and  _111
REMARK   44  A    between atoms: _116  and  _117
REMARK   45  A    between atoms: _119  and  _121
REMARK   46  A    between atoms: _121  and  _122
REMARK   47  A    between atoms: _121  and  _124
REMARK   48  A    between atoms: _125  and  _126
REMARK   49  A    between atoms: _126  and  _127
REMARK   50  A    between atoms: _127  and  _128
REMARK   51  A    between atoms: _132  and  _134
REMARK   52  A    between atoms: _134  and  _135
REMARK   53  A    between atoms: _134  and  _137
REMARK   54  A    between atoms: _137  and  _138
REMARK   55  A    between atoms: _140  and  _142
REMARK   56  A    between atoms: _142  and  _143
REMARK   57  A    between atoms: _142  and  _145
REMARK   58  A    between atoms: _145  and  _146
REMARK   59  A    between atoms: _146  and  _147
REMARK   60  A    between atoms: _152  and  _154
REMARK   61  A    between atoms: _154  and  _155
REMARK   62  A    between atoms: _154  and  _157
REMARK   63  A    between atoms: _157  and  _158
REMARK   64  A    between atoms: _160  and  _162
REMARK   65  A    between atoms: _162  and  _163
REMARK   66  A    between atoms: _162  and  _165
REMARK   67  A    between atoms: _165  and  _166
REMARK   68  A    between atoms: _169  and  _171
REMARK   69  A    between atoms: _171  and  _172
REMARK   70  A    between atoms: _171  and  _174
REMARK   71  A    between atoms: _174  and  _175
REMARK   72  A    between atoms: _180  and  _182
REMARK   73  A    between atoms: _182  and  _183
REMARK   74  A    between atoms: _182  and  _185
REMARK   75  A    between atoms: _188  and  _190
REMARK   76  A    between atoms: _190  and  _191
REMARK   77  A    between atoms: _190  and  _193
REMARK   78  A    between atoms: _193  and  _194
REMARK   79  A    between atoms: _204  and  _206
REMARK   80  A    between atoms: _206  and  _207
REMARK   81  A    between atoms: _206  and  _209
REMARK   82  A    between atoms: _209  and  _210
REMARK   83  A    between atoms: _212  and  _214
REMARK   84  A    between atoms: _214  and  _215
REMARK   85  A    between atoms: _214  and  _217
REMARK   86  A    between atoms: _217  and  _218
REMARK   87  A    between atoms: _221  and  _223
REMARK   88  A    between atoms: _223  and  _224
REMARK   89  A    between atoms: _223  and  _226
REMARK   90  A    between atoms: _226  and  _227
REMARK   91  A    between atoms: _232  and  _233
REMARK   92  A    between atoms: _235  and  _237
REMARK   93  A    between atoms: _237  and  _238
REMARK   94  A    between atoms: _237  and  _240
REMARK   95  A    between atoms: _240  and  _241
REMARK   96  A    between atoms: _251  and  _253
REMARK   97  A    between atoms: _253  and  _254
REMARK   98  A    between atoms: _253  and  _256
REMARK   99  A    between atoms: _256  and  _257
REMARK  100  A    between atoms: _262  and  _264
REMARK  101  A    between atoms: _264  and  _265
REMARK  102  A    between atoms: _264  and  _267
REMARK  103  A    between atoms: _267  and  _268
REMARK  104  A    between atoms: _268  and  _269
REMARK  105  A    between atoms: _274  and  _276
REMARK  106  A    between atoms: _276  and  _277
REMARK  107  A    between atoms: _276  and  _279
REMARK  108  A    between atoms: _279  and  _280
REMARK  109  A    between atoms: _281  and  _282
REMARK  110  A    between atoms: _291  and  _293
REMARK  111  A    between atoms: _293  and  _294
REMARK  112  A    between atoms: _293  and  _296
REMARK  113  A    between atoms: _296  and  _297
REMARK  114  A    between atoms: _302  and  _304
REMARK  115  A    between atoms: _304  and  _305
REMARK  116  A    between atoms: _304  and  _307
REMARK  117  A    between atoms: _307  and  _308
REMARK  118  A    between atoms: _313  and  _314
REMARK  119  A    between atoms: _316  and  _318
REMARK  120  A    between atoms: _318  and  _319
REMARK  121  A    between atoms: _318  and  _321
REMARK  122  A    between atoms: _321  and  _322
REMARK  123  A    between atoms: _322  and  _323
REMARK  124  A    between atoms: _323  and  _324
REMARK  125  A    between atoms: _333  and  _335
REMARK  126  A    between atoms: _335  and  _336
REMARK  127  A    between atoms: _335  and  _338
REMARK  128  A    between atoms: _338  and  _339
REMARK  129  A    between atoms: _342  and  _344
REMARK  130  A    between atoms: _344  and  _345
REMARK  131  A    between atoms: _347  and  _349
REMARK  132  A    between atoms: _349  and  _350
REMARK  133  A    between atoms: _349  and  _352
REMARK  134  A    between atoms: _352  and  _353
REMARK  135  A    between atoms: _355  and  _357
REMARK  136  A    between atoms: _357  and  _358
REMARK  137  A    between atoms: _357  and  _360
REMARK  138  A    between atoms: _360  and  _361
REMARK  139  A    between atoms: _366  and  _367
REMARK  140  A    between atoms: _369  and  _371
REMARK  141  A    between atoms: _371  and  _372
REMARK  142  A    between atoms: _371  and  _374
REMARK  143  A    between atoms: _374  and  _375
REMARK  144  A    between atoms: _380  and  _381
REMARK  145  A    between atoms: _383  and  _385
REMARK  146  A    between atoms: _385  and  _386
REMARK  147  A    between atoms: _388  and  _390
REMARK  148  A    between atoms: _390  and  _391
REMARK  149  A    between atoms: _390  and  _393
REMARK  150  A    between atoms: _393  and  _394
REMARK  151  A    between atoms: _394  and  _395
REMARK  152  A    between atoms: _397  and  _399
REMARK  153  A    between atoms: _399  and  _400
REMARK  154  A    between atoms: _399  and  _402
REMARK  155  A    between atoms: _402  and  _403
REMARK                            x       y       z     vdW  Elec       q    Type
REMARK                         _______ _______ _______ _____ _____    ______ ____
ROOT
ATOM      1  O   HOH     1      24.473  30.514  39.908  0.00  0.00    +0.000 OA
ENDROOT
TORSDOF 0
REMARK  Name = ../refined-set-2016/1flr/1flr_pocket.pdb
REMARK  155 active torsions:
REMARK  status: ('A' for Active; 'I' for Inactive)
REMARK    1  A    between atoms: _1  and  _3
REMARK    2  A    between atoms: _3  and  _4
REMARK    3  A    between atoms: _3  and  _6
REMARK    4  A    between atoms: _6  and  _7
REMARK    5  A    between atoms: _12  and  _14
REMARK    6  A    between atoms: _14  and  _15
REMARK    7  A    between atoms: _14  and  _17
REMARK    8  A    between atoms: _17  and  _18
REMARK    9  A    between atoms: _20  and  _22
REMARK   10  A    between atoms: _22  and  _23
REMARK   11  A    between atoms: _22  and  _25
REMARK   12  A    between atoms: _25  and  _26
REMARK   13  A    between atoms: _31  and  _33
REMARK   14  A    between atoms: _33  and  _34
REMARK   15  A    between atoms: _33  and  _36
REMARK   16  A    between atoms: _36  and  _37
REMARK   17  A    between atoms: _42  and  _44
REMARK   18  A    between atoms: _44  and  _45
REMARK   19  A    between atoms: _44  and  _47
REMARK   20  A    between atoms: _47  and  _48
REMARK   21  A    between atoms: _51  and  _53
REMARK   22  A    between atoms: _53  and  _54
REMARK   23  A    between atoms: _53  and  _56
REMARK   24  A    between atoms: _56  and  _57
REMARK   25  A    between atoms: _62  and  _63
REMARK   26  A    between atoms: _65  and  _67
REMARK   27  A    between atoms: _67  and  _68
REMARK   28  A    between atoms: _67  and  _70
REMARK   29  A    between atoms: _70  and  _71
REMARK   30  A    between atoms: _74  and  _76
REMARK   31  A    between atoms: _76  and  _77
REMARK   32  A    between atoms: _76  and  _79
REMARK   33  A    between atoms: _80  and  _81
REMARK   34  A    between atoms: _81  and  _82
REMARK   35  A    between atoms: _91  and  _93
REMARK   36  A    between atoms: _93  and  _94
REMARK   37  A    between atoms: _93  and  _96
REMARK   38  A    between atoms: _96  and  _97
REMARK   39  A    between atoms: _102  and  _103
REMARK   40  A    between atoms: _105  and  _107
REMARK   41  A    between atoms: _107  and  _108
REMARK   42  A    between atoms: _107  and  _110
REMARK   43  A    between atoms: _110  and  _111
REMARK   44  A    between atoms: _116  and  _117
REMARK   45  A    between atoms: _119  and  _121
REMARK   46  A    between atoms: _121  and  _122
REMARK   47  A    between atoms: _121  and  _124
REMARK   48  A    between atoms: _125  and  _126
REMARK   49  A    between atoms: _126  and  _127
REMARK   50  A    between atoms: _127  and  _128
REMARK   51  A    between atoms: _132  and  _134
REMARK   52  A    between atoms: _134  and  _135
REMARK   53  A    between atoms: _134  and  _137
REMARK   54  A    between atoms: _137  and  _138
REMARK   55  A    between atoms: _140  and  _142
REMARK   56  A    between atoms: _142  and  _143
REMARK   57  A    between atoms: _142  and  _145
REMARK   58  A    between atoms: _145  and  _146
REMARK   59  A    between atoms: _146  and  _147
REMARK   60  A    between atoms: _152  and  _154
REMARK   61  A    between atoms: _154  and  _155
REMARK   62  A    between atoms: _154  and  _157
REMARK   63  A    between atoms: _157  and  _158
REMARK   64  A    between atoms: _160  and  _162
REMARK   65  A    between atoms: _162  and  _163
REMARK   66  A    between atoms: _162  and  _165
REMARK   67  A    between atoms: _165  and  _166
REMARK   68  A    between atoms: _169  and  _171
REMARK   69  A    between atoms: _171  and  _172
REMARK   70  A    between atoms: _171  and  _174
REMARK   71  A    between atoms: _174  and  _175
REMARK   72  A    between atoms: _180  and  _182
REMARK   73  A    between atoms: _182  and  _183
REMARK   74  A    between atoms: _182  and  _185
REMARK   75  A    between atoms: _188  and  _190
REMARK   76  A    between atoms: _190  and  _191
REMARK   77  A    between atoms: _190  and  _193
REMARK   78  A    between atoms: _193  and  _194
REMARK   79  A    between atoms: _204  and  _206
REMARK   80  A    between atoms: _206  and  _207
REMARK   81  A    between atoms: _206  and  _209
REMARK   82  A    between atoms: _209  and  _210
REMARK   83  A    between atoms: _212  and  _214
REMARK   84  A    between atoms: _214  and  _215
REMARK   85  A    between atoms: _214  and  _217
REMARK   86  A    between atoms: _217  and  _218
REMARK   87  A    between atoms: _221  and  _223
REMARK   88  A    between atoms: _223  and  _224
REMARK   89  A    between atoms: _223  and  _226
REMARK   90  A    between atoms: _226  and  _227
REMARK   91  A    between atoms: _232  and  _233
REMARK   92  A    between atoms: _235  and  _237
REMARK   93  A    between atoms: _237  and  _238
REMARK   94  A    between atoms: _237  and  _240
REMARK   95  A    between atoms: _240  and  _241
REMARK   96  A    between atoms: _251  and  _253
REMARK   97  A    between atoms: _253  and  _254
REMARK   98  A    between atoms: _253  and  _256
REMARK   99  A    between atoms: _256  and  _257
REMARK  100  A    between atoms: _262  and  _264
REMARK  101  A    between atoms: _264  and  _265
REMARK  102  A    between atoms: _264  and  _267
REMARK  103  A    between atoms: _267  and  _268
REMARK  104  A    between atoms: _268  and  _269
REMARK  105  A    between atoms: _274  and  _276
REMARK  106  A    between atoms: _276  and  _277
REMARK  107  A    between atoms: _276  and  _279
REMARK  108  A    between atoms: _279  and  _280
REMARK  109  A    between atoms: _281  and  _282
REMARK  110  A    between atoms: _291  and  _293
REMARK  111  A    between atoms: _293  and  _294
REMARK  112  A    between atoms: _293  and  _296
REMARK  113  A    between atoms: _296  and  _297
REMARK  114  A    between atoms: _302  and  _304
REMARK  115  A    between atoms: _304  and  _305
REMARK  116  A    between atoms: _304  and  _307
REMARK  117  A    between atoms: _307  and  _308
REMARK  118  A    between atoms: _313  and  _314
REMARK  119  A    between atoms: _316  and  _318
REMARK  120  A    between atoms: _318  and  _319
REMARK  121  A    between atoms: _318  and  _321
REMARK  122  A    between atoms: _321  and  _322
REMARK  123  A    between atoms: _322  and  _323
REMARK  124  A    between atoms: _323  and  _324
REMARK  125  A    between atoms: _333  and  _335
REMARK  126  A    between atoms: _335  and  _336
REMARK  127  A    between atoms: _335  and  _338
REMARK  128  A    between atoms: _338  and  _339
REMARK  129  A    between atoms: _342  and  _344
REMARK  130  A    between atoms: _344  and  _345
REMARK  131  A    between atoms: _347  and  _349
REMARK  132  A    between atoms: _349  and  _350
REMARK  133  A    between atoms: _349  and  _352
REMARK  134  A    between atoms: _352  and  _353
REMARK  135  A    between atoms: _355  and  _357
REMARK  136  A    between atoms: _357  and  _358
REMARK  137  A    between atoms: _357  and  _360
REMARK  138  A    between atoms: _360  and  _361
REMARK  139  A    between atoms: _366  and  _367
REMARK  140  A    between atoms: _369  and  _371
REMARK  141  A    between atoms: _371  and  _372
REMARK  142  A    between atoms: _371  and  _374
REMARK  143  A    between atoms: _374  and  _375
REMARK  144  A    between atoms: _380  and  _381
REMARK  145  A    between atoms: _383  and  _385
REMARK  146  A    between atoms: _385  and  _386
REMARK  147  A    between atoms: _388  and  _390
REMARK  148  A    between atoms: _390  and  _391
REMARK  149  A    between atoms: _390  and  _393
REMARK  150  A    between atoms: _393  and  _394
REMARK  151  A    between atoms: _394  and  _395
REMARK  152  A    between atoms: _397  and  _399
REMARK  153  A    between atoms: _399  and  _400
REMARK  154  A    between atoms: _399  and  _402
REMARK  155  A    between atoms: _402  and  _403
REMARK                            x       y       z     vdW  Elec       q    Type
REMARK                         _______ _______ _______ _____ _____    ______ ____
ROOT
ATOM      1  O   HOH     1      26.084  27.499  43.883  0.00  0.00    +0.000 OA
ENDROOT
TORSDOF 0
REMARK  Name = ../refined-set-2016/1flr/1flr_pocket.pdb
REMARK  155 active torsions:
REMARK  status: ('A' for Active; 'I' for Inactive)
REMARK    1  A    between atoms: _1  and  _3
REMARK    2  A    between atoms: _3  and  _4
REMARK    3  A    between atoms: _3  and  _6
REMARK    4  A    between atoms: _6  and  _7
REMARK    5  A    between atoms: _12  and  _14
REMARK    6  A    between atoms: _14  and  _15
REMARK    7  A    between atoms: _14  and  _17
REMARK    8  A    between atoms: _17  and  _18
REMARK    9  A    between atoms: _20  and  _22
REMARK   10  A    between atoms: _22  and  _23
REMARK   11  A    between atoms: _22  and  _25
REMARK   12  A    between atoms: _25  and  _26
REMARK   13  A    between atoms: _31  and  _33
REMARK   14  A    between atoms: _33  and  _34
REMARK   15  A    between atoms: _33  and  _36
REMARK   16  A    between atoms: _36  and  _37
REMARK   17  A    between atoms: _42  and  _44
REMARK   18  A    between atoms: _44  and  _45
REMARK   19  A    between atoms: _44  and  _47
REMARK   20  A    between atoms: _47  and  _48
REMARK   21  A    between atoms: _51  and  _53
REMARK   22  A    between atoms: _53  and  _54
REMARK   23  A    between atoms: _53  and  _56
REMARK   24  A    between atoms: _56  and  _57
REMARK   25  A    between atoms: _62  and  _63
REMARK   26  A    between atoms: _65  and  _67
REMARK   27  A    between atoms: _67  and  _68
REMARK   28  A    between atoms: _67  and  _70
REMARK   29  A    between atoms: _70  and  _71
REMARK   30  A    between atoms: _74  and  _76
REMARK   31  A    between atoms: _76  and  _77
REMARK   32  A    between atoms: _76  and  _79
REMARK   33  A    between atoms: _80  and  _81
REMARK   34  A    between atoms: _81  and  _82
REMARK   35  A    between atoms: _91  and  _93
REMARK   36  A    between atoms: _93  and  _94
REMARK   37  A    between atoms: _93  and  _96
REMARK   38  A    between atoms: _96  and  _97
REMARK   39  A    between atoms: _102  and  _103
REMARK   40  A    between atoms: _105  and  _107
REMARK   41  A    between atoms: _107  and  _108
REMARK   42  A    between atoms: _107  and  _110
REMARK   43  A    between atoms: _110  and  _111
REMARK   44  A    between atoms: _116  and  _117
REMARK   45  A    between atoms: _119  and  _121
REMARK   46  A    between atoms: _121  and  _122
REMARK   47  A    between atoms: _121  and  _124
REMARK   48  A    between atoms: _125  and  _126
REMARK   49  A    between atoms: _126  and  _127
REMARK   50  A    between atoms: _127  and  _128
REMARK   51  A    between atoms: _132  and  _134
REMARK   52  A    between atoms: _134  and  _135
REMARK   53  A    between atoms: _134  and  _137
REMARK   54  A    between atoms: _137  and  _138
REMARK   55  A    between atoms: _140  and  _142
REMARK   56  A    between atoms: _142  and  _143
REMARK   57  A    between atoms: _142  and  _145
REMARK   58  A    between atoms: _145  and  _146
REMARK   59  A    between atoms: _146  and  _147
REMARK   60  A    between atoms: _152  and  _154
REMARK   61  A    between atoms: _154  and  _155
REMARK   62  A    between atoms: _154  and  _157
REMARK   63  A    between atoms: _157  and  _158
REMARK   64  A    between atoms: _160  and  _162
REMARK   65  A    between atoms: _162  and  _163
REMARK   66  A    between atoms: _162  and  _165
REMARK   67  A    between atoms: _165  and  _166
REMARK   68  A    between atoms: _169  and  _171
REMARK   69  A    between atoms: _171  and  _172
REMARK   70  A    between atoms: _171  and  _174
REMARK   71  A    between atoms: _174  and  _175
REMARK   72  A    between atoms: _180  and  _182
REMARK   73  A    between atoms: _182  and  _183
REMARK   74  A    between atoms: _182  and  _185
REMARK   75  A    between atoms: _188  and  _190
REMARK   76  A    between atoms: _190  and  _191
REMARK   77  A    between atoms: _190  and  _193
REMARK   78  A    between atoms: _193  and  _194
REMARK   79  A    between atoms: _204  and  _206
REMARK   80  A    between atoms: _206  and  _207
REMARK   81  A    between atoms: _206  and  _209
REMARK   82  A    between atoms: _209  and  _210
REMARK   83  A    between atoms: _212  and  _214
REMARK   84  A    between atoms: _214  and  _215
REMARK   85  A    between atoms: _214  and  _217
REMARK   86  A    between atoms: _217  and  _218
REMARK   87  A    between atoms: _221  and  _223
REMARK   88  A    between atoms: _223  and  _224
REMARK   89  A    between atoms: _223  and  _226
REMARK   90  A    between atoms: _226  and  _227
REMARK   91  A    between atoms: _232  and  _233
REMARK   92  A    between atoms: _235  and  _237
REMARK   93  A    between atoms: _237  and  _238
REMARK   94  A    between atoms: _237  and  _240
REMARK   95  A    between atoms: _240  and  _241
REMARK   96  A    between atoms: _251  and  _253
REMARK   97  A    between atoms: _253  and  _254
REMARK   98  A    between atoms: _253  and  _256
REMARK   99  A    between atoms: _256  and  _257
REMARK  100  A    between atoms: _262  and  _264
REMARK  101  A    between atoms: _264  and  _265
REMARK  102  A    between atoms: _264  and  _267
REMARK  103  A    between atoms: _267  and  _268
REMARK  104  A    between atoms: _268  and  _269
REMARK  105  A    between atoms: _274  and  _276
REMARK  106  A    between atoms: _276  and  _277
REMARK  107  A    between atoms: _276  and  _279
REMARK  108  A    between atoms: _279  and  _280
REMARK  109  A    between atoms: _281  and  _282
REMARK  110  A    between atoms: _291  and  _293
REMARK  111  A    between atoms: _293  and  _294
REMARK  112  A    between atoms: _293  and  _296
REMARK  113  A    between atoms: _296  and  _297
REMARK  114  A    between atoms: _302  and  _304
REMARK  115  A    between atoms: _304  and  _305
REMARK  116  A    between atoms: _304  and  _307
REMARK  117  A    between atoms: _307  and  _308
REMARK  118  A    between atoms: _313  and  _314
REMARK  119  A    between atoms: _316  and  _318
REMARK  120  A    between atoms: _318  and  _319
REMARK  121  A    between atoms: _318  and  _321
REMARK  122  A    between atoms: _321  and  _322
REMARK  123  A    between atoms: _322  and  _323
REMARK  124  A    between atoms: _323  and  _324
REMARK  125  A    between atoms: _333  and  _335
REMARK  126  A    between atoms: _335  and  _336
REMARK  127  A    between atoms: _335  and  _338
REMARK  128  A    between atoms: _338  and  _339
REMARK  129  A    between atoms: _342  and  _344
REMARK  130  A    between atoms: _344  and  _345
REMARK  131  A    between atoms: _347  and  _349
REMARK  132  A    between atoms: _349  and  _350
REMARK  133  A    between atoms: _349  and  _352
REMARK  134  A    between atoms: _352  and  _353
REMARK  135  A    between atoms: _355  and  _357
REMARK  136  A    between atoms: _357  and  _358
REMARK  137  A    between atoms: _357  and  _360
REMARK  138  A    between atoms: _360  and  _361
REMARK  139  A    between atoms: _366  and  _367
REMARK  140  A    between atoms: _369  and  _371
REMARK  141  A    between atoms: _371  and  _372
REMARK  142  A    between atoms: _371  and  _374
REMARK  143  A    between atoms: _374  and  _375
REMARK  144  A    between atoms: _380  and  _381
REMARK  145  A    between atoms: _383  and  _385
REMARK  146  A    between atoms: _385  and  _386
REMARK  147  A    between atoms: _388  and  _390
REMARK  148  A    between atoms: _390  and  _391
REMARK  149  A    between atoms: _390  and  _393
REMARK  150  A    between atoms: _393  and  _394
REMARK  151  A    between atoms: _394  and  _395
REMARK  152  A    between atoms: _397  and  _399
REMARK  153  A    between atoms: _399  and  _400
REMARK  154  A    between atoms: _399  and  _402
REMARK  155  A    between atoms: _402  and  _403
REMARK                            x       y       z     vdW  Elec       q    Type
REMARK                         _______ _______ _______ _____ _____    ______ ____
ROOT
ATOM      1  O   HOH     1      33.361  27.493  45.041  0.00  0.00    +0.000 OA
ENDROOT
TORSDOF 0
REMARK  Name = ../refined-set-2016/1flr/1flr_pocket.pdb
REMARK  155 active torsions:
REMARK  status: ('A' for Active; 'I' for Inactive)
REMARK    1  A    between atoms: _1  and  _3
REMARK    2  A    between atoms: _3  and  _4
REMARK    3  A    between atoms: _3  and  _6
REMARK    4  A    between atoms: _6  and  _7
REMARK    5  A    between atoms: _12  and  _14
REMARK    6  A    between atoms: _14  and  _15
REMARK    7  A    between atoms: _14  and  _17
REMARK    8  A    between atoms: _17  and  _18
REMARK    9  A    between atoms: _20  and  _22
REMARK   10  A    between atoms: _22  and  _23
REMARK   11  A    between atoms: _22  and  _25
REMARK   12  A    between atoms: _25  and  _26
REMARK   13  A    between atoms: _31  and  _33
REMARK   14  A    between atoms: _33  and  _34
REMARK   15  A    between atoms: _33  and  _36
REMARK   16  A    between atoms: _36  and  _37
REMARK   17  A    between atoms: _42  and  _44
REMARK   18  A    between atoms: _44  and  _45
REMARK   19  A    between atoms: _44  and  _47
REMARK   20  A    between atoms: _47  and  _48
REMARK   21  A    between atoms: _51  and  _53
REMARK   22  A    between atoms: _53  and  _54
REMARK   23  A    between atoms: _53  and  _56
REMARK   24  A    between atoms: _56  and  _57
REMARK   25  A    between atoms: _62  and  _63
REMARK   26  A    between atoms: _65  and  _67
REMARK   27  A    between atoms: _67  and  _68
REMARK   28  A    between atoms: _67  and  _70
REMARK   29  A    between atoms: _70  and  _71
REMARK   30  A    between atoms: _74  and  _76
REMARK   31  A    between atoms: _76  and  _77
REMARK   32  A    between atoms: _76  and  _79
REMARK   33  A    between atoms: _80  and  _81
REMARK   34  A    between atoms: _81  and  _82
REMARK   35  A    between atoms: _91  and  _93
REMARK   36  A    between atoms: _93  and  _94
REMARK   37  A    between atoms: _93  and  _96
REMARK   38  A    between atoms: _96  and  _97
REMARK   39  A    between atoms: _102  and  _103
REMARK   40  A    between atoms: _105  and  _107
REMARK   41  A    between atoms: _107  and  _108
REMARK   42  A    between atoms: _107  and  _110
REMARK   43  A    between atoms: _110  and  _111
REMARK   44  A    between atoms: _116  and  _117
REMARK   45  A    between atoms: _119  and  _121
REMARK   46  A    between atoms: _121  and  _122
REMARK   47  A    between atoms: _121  and  _124
REMARK   48  A    between atoms: _125  and  _126
REMARK   49  A    between atoms: _126  and  _127
REMARK   50  A    between atoms: _127  and  _128
REMARK   51  A    between atoms: _132  and  _134
REMARK   52  A    between atoms: _134  and  _135
REMARK   53  A    between atoms: _134  and  _137
REMARK   54  A    between atoms: _137  and  _138
REMARK   55  A    between atoms: _140  and  _142
REMARK   56  A    between atoms: _142  and  _143
REMARK   57  A    between atoms: _142  and  _145
REMARK   58  A    between atoms: _145  and  _146
REMARK   59  A    between atoms: _146  and  _147
REMARK   60  A    between atoms: _152  and  _154
REMARK   61  A    between atoms: _154  and  _155
REMARK   62  A    between atoms: _154  and  _157
REMARK   63  A    between atoms: _157  and  _158
REMARK   64  A    between atoms: _160  and  _162
REMARK   65  A    between atoms: _162  and  _163
REMARK   66  A    between atoms: _162  and  _165
REMARK   67  A    between atoms: _165  and  _166
REMARK   68  A    between atoms: _169  and  _171
REMARK   69  A    between atoms: _171  and  _172
REMARK   70  A    between atoms: _171  and  _174
REMARK   71  A    between atoms: _174  and  _175
REMARK   72  A    between atoms: _180  and  _182
REMARK   73  A    between atoms: _182  and  _183
REMARK   74  A    between atoms: _182  and  _185
REMARK   75  A    between atoms: _188  and  _190
REMARK   76  A    between atoms: _190  and  _191
REMARK   77  A    between atoms: _190  and  _193
REMARK   78  A    between atoms: _193  and  _194
REMARK   79  A    between atoms: _204  and  _206
REMARK   80  A    between atoms: _206  and  _207
REMARK   81  A    between atoms: _206  and  _209
REMARK   82  A    between atoms: _209  and  _210
REMARK   83  A    between atoms: _212  and  _214
REMARK   84  A    between atoms: _214  and  _215
REMARK   85  A    between atoms: _214  and  _217
REMARK   86  A    between atoms: _217  and  _218
REMARK   87  A    between atoms: _221  and  _223
REMARK   88  A    between atoms: _223  and  _224
REMARK   89  A    between atoms: _223  and  _226
REMARK   90  A    between atoms: _226  and  _227
REMARK   91  A    between atoms: _232  and  _233
REMARK   92  A    between atoms: _235  and  _237
REMARK   93  A    between atoms: _237  and  _238
REMARK   94  A    between atoms: _237  and  _240
REMARK   95  A    between atoms: _240  and  _241
REMARK   96  A    between atoms: _251  and  _253
REMARK   97  A    between atoms: _253  and  _254
REMARK   98  A    between atoms: _253  and  _256
REMARK   99  A    between atoms: _256  and  _257
REMARK  100  A    between atoms: _262  and  _264
REMARK  101  A    between atoms: _264  and  _265
REMARK  102  A    between atoms: _264  and  _267
REMARK  103  A    between atoms: _267  and  _268
REMARK  104  A    between atoms: _268  and  _269
REMARK  105  A    between atoms: _274  and  _276
REMARK  106  A    between atoms: _276  and  _277
REMARK  107  A    between atoms: _276  and  _279
REMARK  108  A    between atoms: _279  and  _280
REMARK  109  A    between atoms: _281  and  _282
REMARK  110  A    between atoms: _291  and  _293
REMARK  111  A    between atoms: _293  and  _294
REMARK  112  A    between atoms: _293  and  _296
REMARK  113  A    between atoms: _296  and  _297
REMARK  114  A    between atoms: _302  and  _304
REMARK  115  A    between atoms: _304  and  _305
REMARK  116  A    between atoms: _304  and  _307
REMARK  117  A    between atoms: _307  and  _308
REMARK  118  A    between atoms: _313  and  _314
REMARK  119  A    between atoms: _316  and  _318
REMARK  120  A    between atoms: _318  and  _319
REMARK  121  A    between atoms: _318  and  _321
REMARK  122  A    between atoms: _321  and  _322
REMARK  123  A    between atoms: _322  and  _323
REMARK  124  A    between atoms: _323  and  _324
REMARK  125  A    between atoms: _333  and  _335
REMARK  126  A    between atoms: _335  and  _336
REMARK  127  A    between atoms: _335  and  _338
REMARK  128  A    between atoms: _338  and  _339
REMARK  129  A    between atoms: _342  and  _344
REMARK  130  A    between atoms: _344  and  _345
REMARK  131  A    between atoms: _347  and  _349
REMARK  132  A    between atoms: _349  and  _350
REMARK  133  A    between atoms: _349  and  _352
REMARK  134  A    between atoms: _352  and  _353
REMARK  135  A    between atoms: _355  and  _357
REMARK  136  A    between atoms: _357  and  _358
REMARK  137  A    between atoms: _357  and  _360
REMARK  138  A    between atoms: _360  and  _361
REMARK  139  A    between atoms: _366  and  _367
REMARK  140  A    between atoms: _369  and  _371
REMARK  141  A    between atoms: _371  and  _372
REMARK  142  A    between atoms: _371  and  _374
REMARK  143  A    between atoms: _374  and  _375
REMARK  144  A    between atoms: _380  and  _381
REMARK  145  A    between atoms: _383  and  _385
REMARK  146  A    between atoms: _385  and  _386
REMARK  147  A    between atoms: _388  and  _390
REMARK  148  A    between atoms: _390  and  _391
REMARK  149  A    between atoms: _390  and  _393
REMARK  150  A    between atoms: _393  and  _394
REMARK  151  A    between atoms: _394  and  _395
REMARK  152  A    between atoms: _397  and  _399
REMARK  153  A    between atoms: _399  and  _400
REMARK  154  A    between atoms: _399  and  _402
REMARK  155  A    between atoms: _402  and  _403
REMARK                            x       y       z     vdW  Elec       q    Type
REMARK                         _______ _______ _______ _____ _____    ______ ____
ROOT
ATOM      1  O   HOH     1      21.597  17.487  31.657  0.00  0.00    +0.000 OA
ENDROOT
TORSDOF 0
REMARK  Name = ../refined-set-2016/1flr/1flr_pocket.pdb
REMARK  155 active torsions:
REMARK  status: ('A' for Active; 'I' for Inactive)
REMARK    1  A    between atoms: _1  and  _3
REMARK    2  A    between atoms: _3  and  _4
REMARK    3  A    between atoms: _3  and  _6
REMARK    4  A    between atoms: _6  and  _7
REMARK    5  A    between atoms: _12  and  _14
REMARK    6  A    between atoms: _14  and  _15
REMARK    7  A    between atoms: _14  and  _17
REMARK    8  A    between atoms: _17  and  _18
REMARK    9  A    between atoms: _20  and  _22
REMARK   10  A    between atoms: _22  and  _23
REMARK   11  A    between atoms: _22  and  _25
REMARK   12  A    between atoms: _25  and  _26
REMARK   13  A    between atoms: _31  and  _33
REMARK   14  A    between atoms: _33  and  _34
REMARK   15  A    between atoms: _33  and  _36
REMARK   16  A    between atoms: _36  and  _37
REMARK   17  A    between atoms: _42  and  _44
REMARK   18  A    between atoms: _44  and  _45
REMARK   19  A    between atoms: _44  and  _47
REMARK   20  A    between atoms: _47  and  _48
REMARK   21  A    between atoms: _51  and  _53
REMARK   22  A    between atoms: _53  and  _54
REMARK   23  A    between atoms: _53  and  _56
REMARK   24  A    between atoms: _56  and  _57
REMARK   25  A    between atoms: _62  and  _63
REMARK   26  A    between atoms: _65  and  _67
REMARK   27  A    between atoms: _67  and  _68
REMARK   28  A    between atoms: _67  and  _70
REMARK   29  A    between atoms: _70  and  _71
REMARK   30  A    between atoms: _74  and  _76
REMARK   31  A    between atoms: _76  and  _77
REMARK   32  A    between atoms: _76  and  _79
REMARK   33  A    between atoms: _80  and  _81
REMARK   34  A    between atoms: _81  and  _82
REMARK   35  A    between atoms: _91  and  _93
REMARK   36  A    between atoms: _93  and  _94
REMARK   37  A    between atoms: _93  and  _96
REMARK   38  A    between atoms: _96  and  _97
REMARK   39  A    between atoms: _102  and  _103
REMARK   40  A    between atoms: _105  and  _107
REMARK   41  A    between atoms: _107  and  _108
REMARK   42  A    between atoms: _107  and  _110
REMARK   43  A    between atoms: _110  and  _111
REMARK   44  A    between atoms: _116  and  _117
REMARK   45  A    between atoms: _119  and  _121
REMARK   46  A    between atoms: _121  and  _122
REMARK   47  A    between atoms: _121  and  _124
REMARK   48  A    between atoms: _125  and  _126
REMARK   49  A    between atoms: _126  and  _127
REMARK   50  A    between atoms: _127  and  _128
REMARK   51  A    between atoms: _132  and  _134
REMARK   52  A    between atoms: _134  and  _135
REMARK   53  A    between atoms: _134  and  _137
REMARK   54  A    between atoms: _137  and  _138
REMARK   55  A    between atoms: _140  and  _142
REMARK   56  A    between atoms: _142  and  _143
REMARK   57  A    between atoms: _142  and  _145
REMARK   58  A    between atoms: _145  and  _146
REMARK   59  A    between atoms: _146  and  _147
REMARK   60  A    between atoms: _152  and  _154
REMARK   61  A    between atoms: _154  and  _155
REMARK   62  A    between atoms: _154  and  _157
REMARK   63  A    between atoms: _157  and  _158
REMARK   64  A    between atoms: _160  and  _162
REMARK   65  A    between atoms: _162  and  _163
REMARK   66  A    between atoms: _162  and  _165
REMARK   67  A    between atoms: _165  and  _166
REMARK   68  A    between atoms: _169  and  _171
REMARK   69  A    between atoms: _171  and  _172
REMARK   70  A    between atoms: _171  and  _174
REMARK   71  A    between atoms: _174  and  _175
REMARK   72  A    between atoms: _180  and  _182
REMARK   73  A    between atoms: _182  and  _183
REMARK   74  A    between atoms: _182  and  _185
REMARK   75  A    between atoms: _188  and  _190
REMARK   76  A    between atoms: _190  and  _191
REMARK   77  A    between atoms: _190  and  _193
REMARK   78  A    between atoms: _193  and  _194
REMARK   79  A    between atoms: _204  and  _206
REMARK   80  A    between atoms: _206  and  _207
REMARK   81  A    between atoms: _206  and  _209
REMARK   82  A    between atoms: _209  and  _210
REMARK   83  A    between atoms: _212  and  _214
REMARK   84  A    between atoms: _214  and  _215
REMARK   85  A    between atoms: _214  and  _217
REMARK   86  A    between atoms: _217  and  _218
REMARK   87  A    between atoms: _221  and  _223
REMARK   88  A    between atoms: _223  and  _224
REMARK   89  A    between atoms: _223  and  _226
REMARK   90  A    between atoms: _226  and  _227
REMARK   91  A    between atoms: _232  and  _233
REMARK   92  A    between atoms: _235  and  _237
REMARK   93  A    between atoms: _237  and  _238
REMARK   94  A    between atoms: _237  and  _240
REMARK   95  A    between atoms: _240  and  _241
REMARK   96  A    between atoms: _251  and  _253
REMARK   97  A    between atoms: _253  and  _254
REMARK   98  A    between atoms: _253  and  _256
REMARK   99  A    between atoms: _256  and  _257
REMARK  100  A    between atoms: _262  and  _264
REMARK  101  A    between atoms: _264  and  _265
REMARK  102  A    between atoms: _264  and  _267
REMARK  103  A    between atoms: _267  and  _268
REMARK  104  A    between atoms: _268  and  _269
REMARK  105  A    between atoms: _274  and  _276
REMARK  106  A    between atoms: _276  and  _277
REMARK  107  A    between atoms: _276  and  _279
REMARK  108  A    between atoms: _279  and  _280
REMARK  109  A    between atoms: _281  and  _282
REMARK  110  A    between atoms: _291  and  _293
REMARK  111  A    between atoms: _293  and  _294
REMARK  112  A    between atoms: _293  and  _296
REMARK  113  A    between atoms: _296  and  _297
REMARK  114  A    between atoms: _302  and  _304
REMARK  115  A    between atoms: _304  and  _305
REMARK  116  A    between atoms: _304  and  _307
REMARK  117  A    between atoms: _307  and  _308
REMARK  118  A    between atoms: _313  and  _314
REMARK  119  A    between atoms: _316  and  _318
REMARK  120  A    between atoms: _318  and  _319
REMARK  121  A    between atoms: _318  and  _321
REMARK  122  A    between atoms: _321  and  _322
REMARK  123  A    between atoms: _322  and  _323
REMARK  124  A    between atoms: _323  and  _324
REMARK  125  A    between atoms: _333  and  _335
REMARK  126  A    between atoms: _335  and  _336
REMARK  127  A    between atoms: _335  and  _338
REMARK  128  A    between atoms: _338  and  _339
REMARK  129  A    between atoms: _342  and  _344
REMARK  130  A    between atoms: _344  and  _345
REMARK  131  A    between atoms: _347  and  _349
REMARK  132  A    between atoms: _349  and  _350
REMARK  133  A    between atoms: _349  and  _352
REMARK  134  A    between atoms: _352  and  _353
REMARK  135  A    between atoms: _355  and  _357
REMARK  136  A    between atoms: _357  and  _358
REMARK  137  A    between atoms: _357  and  _360
REMARK  138  A    between atoms: _360  and  _361
REMARK  139  A    between atoms: _366  and  _367
REMARK  140  A    between atoms: _369  and  _371
REMARK  141  A    between atoms: _371  and  _372
REMARK  142  A    between atoms: _371  and  _374
REMARK  143  A    between atoms: _374  and  _375
REMARK  144  A    between atoms: _380  and  _381
REMARK  145  A    between atoms: _383  and  _385
REMARK  146  A    between atoms: _385  and  _386
REMARK  147  A    between atoms: _388  and  _390
REMARK  148  A    between atoms: _390  and  _391
REMARK  149  A    between atoms: _390  and  _393
REMARK  150  A    between atoms: _393  and  _394
REMARK  151  A    between atoms: _394  and  _395
REMARK  152  A    between atoms: _397  and  _399
REMARK  153  A    between atoms: _399  and  _400
REMARK  154  A    between atoms: _399  and  _402
REMARK  155  A    between atoms: _402  and  _403
REMARK                            x       y       z     vdW  Elec       q    Type
REMARK                         _______ _______ _______ _____ _____    ______ ____
ROOT
ATOM      1  O   HOH     1      29.800  30.284  44.452  0.00  0.00    +0.000 OA
ENDROOT
TORSDOF 0
REMARK  Name = ../refined-set-2016/1flr/1flr_pocket.pdb
REMARK  155 active torsions:
REMARK  status: ('A' for Active; 'I' for Inactive)
REMARK    1  A    between atoms: _1  and  _3
REMARK    2  A    between atoms: _3  and  _4
REMARK    3  A    between atoms: _3  and  _6
REMARK    4  A    between atoms: _6  and  _7
REMARK    5  A    between atoms: _12  and  _14
REMARK    6  A    between atoms: _14  and  _15
REMARK    7  A    between atoms: _14  and  _17
REMARK    8  A    between atoms: _17  and  _18
REMARK    9  A    between atoms: _20  and  _22
REMARK   10  A    between atoms: _22  and  _23
REMARK   11  A    between atoms: _22  and  _25
REMARK   12  A    between atoms: _25  and  _26
REMARK   13  A    between atoms: _31  and  _33
REMARK   14  A    between atoms: _33  and  _34
REMARK   15  A    between atoms: _33  and  _36
REMARK   16  A    between atoms: _36  and  _37
REMARK   17  A    between atoms: _42  and  _44
REMARK   18  A    between atoms: _44  and  _45
REMARK   19  A    between atoms: _44  and  _47
REMARK   20  A    between atoms: _47  and  _48
REMARK   21  A    between atoms: _51  and  _53
REMARK   22  A    between atoms: _53  and  _54
REMARK   23  A    between atoms: _53  and  _56
REMARK   24  A    between atoms: _56  and  _57
REMARK   25  A    between atoms: _62  and  _63
REMARK   26  A    between atoms: _65  and  _67
REMARK   27  A    between atoms: _67  and  _68
REMARK   28  A    between atoms: _67  and  _70
REMARK   29  A    between atoms: _70  and  _71
REMARK   30  A    between atoms: _74  and  _76
REMARK   31  A    between atoms: _76  and  _77
REMARK   32  A    between atoms: _76  and  _79
REMARK   33  A    between atoms: _80  and  _81
REMARK   34  A    between atoms: _81  and  _82
REMARK   35  A    between atoms: _91  and  _93
REMARK   36  A    between atoms: _93  and  _94
REMARK   37  A    between atoms: _93  and  _96
REMARK   38  A    between atoms: _96  and  _97
REMARK   39  A    between atoms: _102  and  _103
REMARK   40  A    between atoms: _105  and  _107
REMARK   41  A    between atoms: _107  and  _108
REMARK   42  A    between atoms: _107  and  _110
REMARK   43  A    between atoms: _110  and  _111
REMARK   44  A    between atoms: _116  and  _117
REMARK   45  A    between atoms: _119  and  _121
REMARK   46  A    between atoms: _121  and  _122
REMARK   47  A    between atoms: _121  and  _124
REMARK   48  A    between atoms: _125  and  _126
REMARK   49  A    between atoms: _126  and  _127
REMARK   50  A    between atoms: _127  and  _128
REMARK   51  A    between atoms: _132  and  _134
REMARK   52  A    between atoms: _134  and  _135
REMARK   53  A    between atoms: _134  and  _137
REMARK   54  A    between atoms: _137  and  _138
REMARK   55  A    between atoms: _140  and  _142
REMARK   56  A    between atoms: _142  and  _143
REMARK   57  A    between atoms: _142  and  _145
REMARK   58  A    between atoms: _145  and  _146
REMARK   59  A    between atoms: _146  and  _147
REMARK   60  A    between atoms: _152  and  _154
REMARK   61  A    between atoms: _154  and  _155
REMARK   62  A    between atoms: _154  and  _157
REMARK   63  A    between atoms: _157  and  _158
REMARK   64  A    between atoms: _160  and  _162
REMARK   65  A    between atoms: _162  and  _163
REMARK   66  A    between atoms: _162  and  _165
REMARK   67  A    between atoms: _165  and  _166
REMARK   68  A    between atoms: _169  and  _171
REMARK   69  A    between atoms: _171  and  _172
REMARK   70  A    between atoms: _171  and  _174
REMARK   71  A    between atoms: _174  and  _175
REMARK   72  A    between atoms: _180  and  _182
REMARK   73  A    between atoms: _182  and  _183
REMARK   74  A    between atoms: _182  and  _185
REMARK   75  A    between atoms: _188  and  _190
REMARK   76  A    between atoms: _190  and  _191
REMARK   77  A    between atoms: _190  and  _193
REMARK   78  A    between atoms: _193  and  _194
REMARK   79  A    between atoms: _204  and  _206
REMARK   80  A    between atoms: _206  and  _207
REMARK   81  A    between atoms: _206  and  _209
REMARK   82  A    between atoms: _209  and  _210
REMARK   83  A    between atoms: _212  and  _214
REMARK   84  A    between atoms: _214  and  _215
REMARK   85  A    between atoms: _214  and  _217
REMARK   86  A    between atoms: _217  and  _218
REMARK   87  A    between atoms: _221  and  _223
REMARK   88  A    between atoms: _223  and  _224
REMARK   89  A    between atoms: _223  and  _226
REMARK   90  A    between atoms: _226  and  _227
REMARK   91  A    between atoms: _232  and  _233
REMARK   92  A    between atoms: _235  and  _237
REMARK   93  A    between atoms: _237  and  _238
REMARK   94  A    between atoms: _237  and  _240
REMARK   95  A    between atoms: _240  and  _241
REMARK   96  A    between atoms: _251  and  _253
REMARK   97  A    between atoms: _253  and  _254
REMARK   98  A    between atoms: _253  and  _256
REMARK   99  A    between atoms: _256  and  _257
REMARK  100  A    between atoms: _262  and  _264
REMARK  101  A    between atoms: _264  and  _265
REMARK  102  A    between atoms: _264  and  _267
REMARK  103  A    between atoms: _267  and  _268
REMARK  104  A    between atoms: _268  and  _269
REMARK  105  A    between atoms: _274  and  _276
REMARK  106  A    between atoms: _276  and  _277
REMARK  107  A    between atoms: _276  and  _279
REMARK  108  A    between atoms: _279  and  _280
REMARK  109  A    between atoms: _281  and  _282
REMARK  110  A    between atoms: _291  and  _293
REMARK  111  A    between atoms: _293  and  _294
REMARK  112  A    between atoms: _293  and  _296
REMARK  113  A    between atoms: _296  and  _297
REMARK  114  A    between atoms: _302  and  _304
REMARK  115  A    between atoms: _304  and  _305
REMARK  116  A    between atoms: _304  and  _307
REMARK  117  A    between atoms: _307  and  _308
REMARK  118  A    between atoms: _313  and  _314
REMARK  119  A    between atoms: _316  and  _318
REMARK  120  A    between atoms: _318  and  _319
REMARK  121  A    between atoms: _318  and  _321
REMARK  122  A    between atoms: _321  and  _322
REMARK  123  A    between atoms: _322  and  _323
REMARK  124  A    between atoms: _323  and  _324
REMARK  125  A    between atoms: _333  and  _335
REMARK  126  A    between atoms: _335  and  _336
REMARK  127  A    between atoms: _335  and  _338
REMARK  128  A    between atoms: _338  and  _339
REMARK  129  A    between atoms: _342  and  _344
REMARK  130  A    between atoms: _344  and  _345
REMARK  131  A    between atoms: _347  and  _349
REMARK  132  A    between atoms: _349  and  _350
REMARK  133  A    between atoms: _349  and  _352
REMARK  134  A    between atoms: _352  and  _353
REMARK  135  A    between atoms: _355  and  _357
REMARK  136  A    between atoms: _357  and  _358
REMARK  137  A    between atoms: _357  and  _360
REMARK  138  A    between atoms: _360  and  _361
REMARK  139  A    between atoms: _366  and  _367
REMARK  140  A    between atoms: _369  and  _371
REMARK  141  A    between atoms: _371  and  _372
REMARK  142  A    between atoms: _371  and  _374
REMARK  143  A    between atoms: _374  and  _375
REMARK  144  A    between atoms: _380  and  _381
REMARK  145  A    between atoms: _383  and  _385
REMARK  146  A    between atoms: _385  and  _386
REMARK  147  A    between atoms: _388  and  _390
REMARK  148  A    between atoms: _390  and  _391
REMARK  149  A    between atoms: _390  and  _393
REMARK  150  A    between atoms: _393  and  _394
REMARK  151  A    between atoms: _394  and  _395
REMARK  152  A    between atoms: _397  and  _399
REMARK  153  A    between atoms: _399  and  _400
REMARK  154  A    between atoms: _399  and  _402
REMARK  155  A    between atoms: _402  and  _403
REMARK                            x       y       z     vdW  Elec       q    Type
REMARK                         _______ _______ _______ _____ _____    ______ ____
ROOT
ATOM      1  O   HOH     1      35.426  24.781  47.269  0.00  0.00    +0.000 OA
ENDROOT
TORSDOF 0
REMARK  Name = ../refined-set-2016/1flr/1flr_pocket.pdb
REMARK  155 active torsions:
REMARK  status: ('A' for Active; 'I' for Inactive)
REMARK    1  A    between atoms: _1  and  _3
REMARK    2  A    between atoms: _3  and  _4
REMARK    3  A    between atoms: _3  and  _6
REMARK    4  A    between atoms: _6  and  _7
REMARK    5  A    between atoms: _12  and  _14
REMARK    6  A    between atoms: _14  and  _15
REMARK    7  A    between atoms: _14  and  _17
REMARK    8  A    between atoms: _17  and  _18
REMARK    9  A    between atoms: _20  and  _22
REMARK   10  A    between atoms: _22  and  _23
REMARK   11  A    between atoms: _22  and  _25
REMARK   12  A    between atoms: _25  and  _26
REMARK   13  A    between atoms: _31  and  _33
REMARK   14  A    between atoms: _33  and  _34
REMARK   15  A    between atoms: _33  and  _36
REMARK   16  A    between atoms: _36  and  _37
REMARK   17  A    between atoms: _42  and  _44
REMARK   18  A    between atoms: _44  and  _45
REMARK   19  A    between atoms: _44  and  _47
REMARK   20  A    between atoms: _47  and  _48
REMARK   21  A    between atoms: _51  and  _53
REMARK   22  A    between atoms: _53  and  _54
REMARK   23  A    between atoms: _53  and  _56
REMARK   24  A    between atoms: _56  and  _57
REMARK   25  A    between atoms: _62  and  _63
REMARK   26  A    between atoms: _65  and  _67
REMARK   27  A    between atoms: _67  and  _68
REMARK   28  A    between atoms: _67  and  _70
REMARK   29  A    between atoms: _70  and  _71
REMARK   30  A    between atoms: _74  and  _76
REMARK   31  A    between atoms: _76  and  _77
REMARK   32  A    between atoms: _76  and  _79
REMARK   33  A    between atoms: _80  and  _81
REMARK   34  A    between atoms: _81  and  _82
REMARK   35  A    between atoms: _91  and  _93
REMARK   36  A    between atoms: _93  and  _94
REMARK   37  A    between atoms: _93  and  _96
REMARK   38  A    between atoms: _96  and  _97
REMARK   39  A    between atoms: _102  and  _103
REMARK   40  A    between atoms: _105  and  _107
REMARK   41  A    between atoms: _107  and  _108
REMARK   42  A    between atoms: _107  and  _110
REMARK   43  A    between atoms: _110  and  _111
REMARK   44  A    between atoms: _116  and  _117
REMARK   45  A    between atoms: _119  and  _121
REMARK   46  A    between atoms: _121  and  _122
REMARK   47  A    between atoms: _121  and  _124
REMARK   48  A    between atoms: _125  and  _126
REMARK   49  A    between atoms: _126  and  _127
REMARK   50  A    between atoms: _127  and  _128
REMARK   51  A    between atoms: _132  and  _134
REMARK   52  A    between atoms: _134  and  _135
REMARK   53  A    between atoms: _134  and  _137
REMARK   54  A    between atoms: _137  and  _138
REMARK   55  A    between atoms: _140  and  _142
REMARK   56  A    between atoms: _142  and  _143
REMARK   57  A    between atoms: _142  and  _145
REMARK   58  A    between atoms: _145  and  _146
REMARK   59  A    between atoms: _146  and  _147
REMARK   60  A    between atoms: _152  and  _154
REMARK   61  A    between atoms: _154  and  _155
REMARK   62  A    between atoms: _154  and  _157
REMARK   63  A    between atoms: _157  and  _158
REMARK   64  A    between atoms: _160  and  _162
REMARK   65  A    between atoms: _162  and  _163
REMARK   66  A    between atoms: _162  and  _165
REMARK   67  A    between atoms: _165  and  _166
REMARK   68  A    between atoms: _169  and  _171
REMARK   69  A    between atoms: _171  and  _172
REMARK   70  A    between atoms: _171  and  _174
REMARK   71  A    between atoms: _174  and  _175
REMARK   72  A    between atoms: _180  and  _182
REMARK   73  A    between atoms: _182  and  _183
REMARK   74  A    between atoms: _182  and  _185
REMARK   75  A    between atoms: _188  and  _190
REMARK   76  A    between atoms: _190  and  _191
REMARK   77  A    between atoms: _190  and  _193
REMARK   78  A    between atoms: _193  and  _194
REMARK   79  A    between atoms: _204  and  _206
REMARK   80  A    between atoms: _206  and  _207
REMARK   81  A    between atoms: _206  and  _209
REMARK   82  A    between atoms: _209  and  _210
REMARK   83  A    between atoms: _212  and  _214
REMARK   84  A    between atoms: _214  and  _215
REMARK   85  A    between atoms: _214  and  _217
REMARK   86  A    between atoms: _217  and  _218
REMARK   87  A    between atoms: _221  and  _223
REMARK   88  A    between atoms: _223  and  _224
REMARK   89  A    between atoms: _223  and  _226
REMARK   90  A    between atoms: _226  and  _227
REMARK   91  A    between atoms: _232  and  _233
REMARK   92  A    between atoms: _235  and  _237
REMARK   93  A    between atoms: _237  and  _238
REMARK   94  A    between atoms: _237  and  _240
REMARK   95  A    between atoms: _240  and  _241
REMARK   96  A    between atoms: _251  and  _253
REMARK   97  A    between atoms: _253  and  _254
REMARK   98  A    between atoms: _253  and  _256
REMARK   99  A    between atoms: _256  and  _257
REMARK  100  A    between atoms: _262  and  _264
REMARK  101  A    between atoms: _264  and  _265
REMARK  102  A    between atoms: _264  and  _267
REMARK  103  A    between atoms: _267  and  _268
REMARK  104  A    between atoms: _268  and  _269
REMARK  105  A    between atoms: _274  and  _276
REMARK  106  A    between atoms: _276  and  _277
REMARK  107  A    between atoms: _276  and  _279
REMARK  108  A    between atoms: _279  and  _280
REMARK  109  A    between atoms: _281  and  _282
REMARK  110  A    between atoms: _291  and  _293
REMARK  111  A    between atoms: _293  and  _294
REMARK  112  A    between atoms: _293  and  _296
REMARK  113  A    between atoms: _296  and  _297
REMARK  114  A    between atoms: _302  and  _304
REMARK  115  A    between atoms: _304  and  _305
REMARK  116  A    between atoms: _304  and  _307
REMARK  117  A    between atoms: _307  and  _308
REMARK  118  A    between atoms: _313  and  _314
REMARK  119  A    between atoms: _316  and  _318
REMARK  120  A    between atoms: _318  and  _319
REMARK  121  A    between atoms: _318  and  _321
REMARK  122  A    between atoms: _321  and  _322
REMARK  123  A    between atoms: _322  and  _323
REMARK  124  A    between atoms: _323  and  _324
REMARK  125  A    between atoms: _333  and  _335
REMARK  126  A    between atoms: _335  and  _336
REMARK  127  A    between atoms: _335  and  _338
REMARK  128  A    between atoms: _338  and  _339
REMARK  129  A    between atoms: _342  and  _344
REMARK  130  A    between atoms: _344  and  _345
REMARK  131  A    between atoms: _347  and  _349
REMARK  132  A    between atoms: _349  and  _350
REMARK  133  A    between atoms: _349  and  _352
REMARK  134  A    between atoms: _352  and  _353
REMARK  135  A    between atoms: _355  and  _357
REMARK  136  A    between atoms: _357  and  _358
REMARK  137  A    between atoms: _357  and  _360
REMARK  138  A    between atoms: _360  and  _361
REMARK  139  A    between atoms: _366  and  _367
REMARK  140  A    between atoms: _369  and  _371
REMARK  141  A    between atoms: _371  and  _372
REMARK  142  A    between atoms: _371  and  _374
REMARK  143  A    between atoms: _374  and  _375
REMARK  144  A    between atoms: _380  and  _381
REMARK  145  A    between atoms: _383  and  _385
REMARK  146  A    between atoms: _385  and  _386
REMARK  147  A    between atoms: _388  and  _390
REMARK  148  A    between atoms: _390  and  _391
REMARK  149  A    between atoms: _390  and  _393
REMARK  150  A    between atoms: _393  and  _394
REMARK  151  A    between atoms: _394  and  _395
REMARK  152  A    between atoms: _397  and  _399
REMARK  153  A    between atoms: _399  and  _400
REMARK  154  A    between atoms: _399  and  _402
REMARK  155  A    between atoms: _402  and  _403
REMARK                            x       y       z     vdW  Elec       q    Type
REMARK                         _______ _______ _______ _____ _____    ______ ____
ROOT
ATOM      1  O   HOH     1      16.684  23.936  43.693  0.00  0.00    +0.000 OA
ENDROOT
TORSDOF 0
REMARK  Name = ../refined-set-2016/1flr/1flr_pocket.pdb
REMARK  155 active torsions:
REMARK  status: ('A' for Active; 'I' for Inactive)
REMARK    1  A    between atoms: _1  and  _3
REMARK    2  A    between atoms: _3  and  _4
REMARK    3  A    between atoms: _3  and  _6
REMARK    4  A    between atoms: _6  and  _7
REMARK    5  A    between atoms: _12  and  _14
REMARK    6  A    between atoms: _14  and  _15
REMARK    7  A    between atoms: _14  and  _17
REMARK    8  A    between atoms: _17  and  _18
REMARK    9  A    between atoms: _20  and  _22
REMARK   10  A    between atoms: _22  and  _23
REMARK   11  A    between atoms: _22  and  _25
REMARK   12  A    between atoms: _25  and  _26
REMARK   13  A    between atoms: _31  and  _33
REMARK   14  A    between atoms: _33  and  _34
REMARK   15  A    between atoms: _33  and  _36
REMARK   16  A    between atoms: _36  and  _37
REMARK   17  A    between atoms: _42  and  _44
REMARK   18  A    between atoms: _44  and  _45
REMARK   19  A    between atoms: _44  and  _47
REMARK   20  A    between atoms: _47  and  _48
REMARK   21  A    between atoms: _51  and  _53
REMARK   22  A    between atoms: _53  and  _54
REMARK   23  A    between atoms: _53  and  _56
REMARK   24  A    between atoms: _56  and  _57
REMARK   25  A    between atoms: _62  and  _63
REMARK   26  A    between atoms: _65  and  _67
REMARK   27  A    between atoms: _67  and  _68
REMARK   28  A    between atoms: _67  and  _70
REMARK   29  A    between atoms: _70  and  _71
REMARK   30  A    between atoms: _74  and  _76
REMARK   31  A    between atoms: _76  and  _77
REMARK   32  A    between atoms: _76  and  _79
REMARK   33  A    between atoms: _80  and  _81
REMARK   34  A    between atoms: _81  and  _82
REMARK   35  A    between atoms: _91  and  _93
REMARK   36  A    between atoms: _93  and  _94
REMARK   37  A    between atoms: _93  and  _96
REMARK   38  A    between atoms: _96  and  _97
REMARK   39  A    between atoms: _102  and  _103
REMARK   40  A    between atoms: _105  and  _107
REMARK   41  A    between atoms: _107  and  _108
REMARK   42  A    between atoms: _107  and  _110
REMARK   43  A    between atoms: _110  and  _111
REMARK   44  A    between atoms: _116  and  _117
REMARK   45  A    between atoms: _119  and  _121
REMARK   46  A    between atoms: _121  and  _122
REMARK   47  A    between atoms: _121  and  _124
REMARK   48  A    between atoms: _125  and  _126
REMARK   49  A    between atoms: _126  and  _127
REMARK   50  A    between atoms: _127  and  _128
REMARK   51  A    between atoms: _132  and  _134
REMARK   52  A    between atoms: _134  and  _135
REMARK   53  A    between atoms: _134  and  _137
REMARK   54  A    between atoms: _137  and  _138
REMARK   55  A    between atoms: _140  and  _142
REMARK   56  A    between atoms: _142  and  _143
REMARK   57  A    between atoms: _142  and  _145
REMARK   58  A    between atoms: _145  and  _146
REMARK   59  A    between atoms: _146  and  _147
REMARK   60  A    between atoms: _152  and  _154
REMARK   61  A    between atoms: _154  and  _155
REMARK   62  A    between atoms: _154  and  _157
REMARK   63  A    between atoms: _157  and  _158
REMARK   64  A    between atoms: _160  and  _162
REMARK   65  A    between atoms: _162  and  _163
REMARK   66  A    between atoms: _162  and  _165
REMARK   67  A    between atoms: _165  and  _166
REMARK   68  A    between atoms: _169  and  _171
REMARK   69  A    between atoms: _171  and  _172
REMARK   70  A    between atoms: _171  and  _174
REMARK   71  A    between atoms: _174  and  _175
REMARK   72  A    between atoms: _180  and  _182
REMARK   73  A    between atoms: _182  and  _183
REMARK   74  A    between atoms: _182  and  _185
REMARK   75  A    between atoms: _188  and  _190
REMARK   76  A    between atoms: _190  and  _191
REMARK   77  A    between atoms: _190  and  _193
REMARK   78  A    between atoms: _193  and  _194
REMARK   79  A    between atoms: _204  and  _206
REMARK   80  A    between atoms: _206  and  _207
REMARK   81  A    between atoms: _206  and  _209
REMARK   82  A    between atoms: _209  and  _210
REMARK   83  A    between atoms: _212  and  _214
REMARK   84  A    between atoms: _214  and  _215
REMARK   85  A    between atoms: _214  and  _217
REMARK   86  A    between atoms: _217  and  _218
REMARK   87  A    between atoms: _221  and  _223
REMARK   88  A    between atoms: _223  and  _224
REMARK   89  A    between atoms: _223  and  _226
REMARK   90  A    between atoms: _226  and  _227
REMARK   91  A    between atoms: _232  and  _233
REMARK   92  A    between atoms: _235  and  _237
REMARK   93  A    between atoms: _237  and  _238
REMARK   94  A    between atoms: _237  and  _240
REMARK   95  A    between atoms: _240  and  _241
REMARK   96  A    between atoms: _251  and  _253
REMARK   97  A    between atoms: _253  and  _254
REMARK   98  A    between atoms: _253  and  _256
REMARK   99  A    between atoms: _256  and  _257
REMARK  100  A    between atoms: _262  and  _264
REMARK  101  A    between atoms: _264  and  _265
REMARK  102  A    between atoms: _264  and  _267
REMARK  103  A    between atoms: _267  and  _268
REMARK  104  A    between atoms: _268  and  _269
REMARK  105  A    between atoms: _274  and  _276
REMARK  106  A    between atoms: _276  and  _277
REMARK  107  A    between atoms: _276  and  _279
REMARK  108  A    between atoms: _279  and  _280
REMARK  109  A    between atoms: _281  and  _282
REMARK  110  A    between atoms: _291  and  _293
REMARK  111  A    between atoms: _293  and  _294
REMARK  112  A    between atoms: _293  and  _296
REMARK  113  A    between atoms: _296  and  _297
REMARK  114  A    between atoms: _302  and  _304
REMARK  115  A    between atoms: _304  and  _305
REMARK  116  A    between atoms: _304  and  _307
REMARK  117  A    between atoms: _307  and  _308
REMARK  118  A    between atoms: _313  and  _314
REMARK  119  A    between atoms: _316  and  _318
REMARK  120  A    between atoms: _318  and  _319
REMARK  121  A    between atoms: _318  and  _321
REMARK  122  A    between atoms: _321  and  _322
REMARK  123  A    between atoms: _322  and  _323
REMARK  124  A    between atoms: _323  and  _324
REMARK  125  A    between atoms: _333  and  _335
REMARK  126  A    between atoms: _335  and  _336
REMARK  127  A    between atoms: _335  and  _338
REMARK  128  A    between atoms: _338  and  _339
REMARK  129  A    between atoms: _342  and  _344
REMARK  130  A    between atoms: _344  and  _345
REMARK  131  A    between atoms: _347  and  _349
REMARK  132  A    between atoms: _349  and  _350
REMARK  133  A    between atoms: _349  and  _352
REMARK  134  A    between atoms: _352  and  _353
REMARK  135  A    between atoms: _355  and  _357
REMARK  136  A    between atoms: _357  and  _358
REMARK  137  A    between atoms: _357  and  _360
REMARK  138  A    between atoms: _360  and  _361
REMARK  139  A    between atoms: _366  and  _367
REMARK  140  A    between atoms: _369  and  _371
REMARK  141  A    between atoms: _371  and  _372
REMARK  142  A    between atoms: _371  and  _374
REMARK  143  A    between atoms: _374  and  _375
REMARK  144  A    between atoms: _380  and  _381
REMARK  145  A    between atoms: _383  and  _385
REMARK  146  A    between atoms: _385  and  _386
REMARK  147  A    between atoms: _388  and  _390
REMARK  148  A    between atoms: _390  and  _391
REMARK  149  A    between atoms: _390  and  _393
REMARK  150  A    between atoms: _393  and  _394
REMARK  151  A    between atoms: _394  and  _395
REMARK  152  A    between atoms: _397  and  _399
REMARK  153  A    between atoms: _399  and  _400
REMARK  154  A    between atoms: _399  and  _402
REMARK  155  A    between atoms: _402  and  _403
REMARK                            x       y       z     vdW  Elec       q    Type
REMARK                         _______ _______ _______ _____ _____    ______ ____
ROOT
ATOM      1  O   HOH     1      24.652  29.937  47.223  0.00  0.00    +0.000 OA
ENDROOT
TORSDOF 0
REMARK  Name = ../refined-set-2016/1flr/1flr_pocket.pdb
REMARK  155 active torsions:
REMARK  status: ('A' for Active; 'I' for Inactive)
REMARK    1  A    between atoms: _1  and  _3
REMARK    2  A    between atoms: _3  and  _4
REMARK    3  A    between atoms: _3  and  _6
REMARK    4  A    between atoms: _6  and  _7
REMARK    5  A    between atoms: _12  and  _14
REMARK    6  A    between atoms: _14  and  _15
REMARK    7  A    between atoms: _14  and  _17
REMARK    8  A    between atoms: _17  and  _18
REMARK    9  A    between atoms: _20  and  _22
REMARK   10  A    between atoms: _22  and  _23
REMARK   11  A    between atoms: _22  and  _25
REMARK   12  A    between atoms: _25  and  _26
REMARK   13  A    between atoms: _31  and  _33
REMARK   14  A    between atoms: _33  and  _34
REMARK   15  A    between atoms: _33  and  _36
REMARK   16  A    between atoms: _36  and  _37
REMARK   17  A    between atoms: _42  and  _44
REMARK   18  A    between atoms: _44  and  _45
REMARK   19  A    between atoms: _44  and  _47
REMARK   20  A    between atoms: _47  and  _48
REMARK   21  A    between atoms: _51  and  _53
REMARK   22  A    between atoms: _53  and  _54
REMARK   23  A    between atoms: _53  and  _56
REMARK   24  A    between atoms: _56  and  _57
REMARK   25  A    between atoms: _62  and  _63
REMARK   26  A    between atoms: _65  and  _67
REMARK   27  A    between atoms: _67  and  _68
REMARK   28  A    between atoms: _67  and  _70
REMARK   29  A    between atoms: _70  and  _71
REMARK   30  A    between atoms: _74  and  _76
REMARK   31  A    between atoms: _76  and  _77
REMARK   32  A    between atoms: _76  and  _79
REMARK   33  A    between atoms: _80  and  _81
REMARK   34  A    between atoms: _81  and  _82
REMARK   35  A    between atoms: _91  and  _93
REMARK   36  A    between atoms: _93  and  _94
REMARK   37  A    between atoms: _93  and  _96
REMARK   38  A    between atoms: _96  and  _97
REMARK   39  A    between atoms: _102  and  _103
REMARK   40  A    between atoms: _105  and  _107
REMARK   41  A    between atoms: _107  and  _108
REMARK   42  A    between atoms: _107  and  _110
REMARK   43  A    between atoms: _110  and  _111
REMARK   44  A    between atoms: _116  and  _117
REMARK   45  A    between atoms: _119  and  _121
REMARK   46  A    between atoms: _121  and  _122
REMARK   47  A    between atoms: _121  and  _124
REMARK   48  A    between atoms: _125  and  _126
REMARK   49  A    between atoms: _126  and  _127
REMARK   50  A    between atoms: _127  and  _128
REMARK   51  A    between atoms: _132  and  _134
REMARK   52  A    between atoms: _134  and  _135
REMARK   53  A    between atoms: _134  and  _137
REMARK   54  A    between atoms: _137  and  _138
REMARK   55  A    between atoms: _140  and  _142
REMARK   56  A    between atoms: _142  and  _143
REMARK   57  A    between atoms: _142  and  _145
REMARK   58  A    between atoms: _145  and  _146
REMARK   59  A    between atoms: _146  and  _147
REMARK   60  A    between atoms: _152  and  _154
REMARK   61  A    between atoms: _154  and  _155
REMARK   62  A    between atoms: _154  and  _157
REMARK   63  A    between atoms: _157  and  _158
REMARK   64  A    between atoms: _160  and  _162
REMARK   65  A    between atoms: _162  and  _163
REMARK   66  A    between atoms: _162  and  _165
REMARK   67  A    between atoms: _165  and  _166
REMARK   68  A    between atoms: _169  and  _171
REMARK   69  A    between atoms: _171  and  _172
REMARK   70  A    between atoms: _171  and  _174
REMARK   71  A    between atoms: _174  and  _175
REMARK   72  A    between atoms: _180  and  _182
REMARK   73  A    between atoms: _182  and  _183
REMARK   74  A    between atoms: _182  and  _185
REMARK   75  A    between atoms: _188  and  _190
REMARK   76  A    between atoms: _190  and  _191
REMARK   77  A    between atoms: _190  and  _193
REMARK   78  A    between atoms: _193  and  _194
REMARK   79  A    between atoms: _204  and  _206
REMARK   80  A    between atoms: _206  and  _207
REMARK   81  A    between atoms: _206  and  _209
REMARK   82  A    between atoms: _209  and  _210
REMARK   83  A    between atoms: _212  and  _214
REMARK   84  A    between atoms: _214  and  _215
REMARK   85  A    between atoms: _214  and  _217
REMARK   86  A    between atoms: _217  and  _218
REMARK   87  A    between atoms: _221  and  _223
REMARK   88  A    between atoms: _223  and  _224
REMARK   89  A    between atoms: _223  and  _226
REMARK   90  A    between atoms: _226  and  _227
REMARK   91  A    between atoms: _232  and  _233
REMARK   92  A    between atoms: _235  and  _237
REMARK   93  A    between atoms: _237  and  _238
REMARK   94  A    between atoms: _237  and  _240
REMARK   95  A    between atoms: _240  and  _241
REMARK   96  A    between atoms: _251  and  _253
REMARK   97  A    between atoms: _253  and  _254
REMARK   98  A    between atoms: _253  and  _256
REMARK   99  A    between atoms: _256  and  _257
REMARK  100  A    between atoms: _262  and  _264
REMARK  101  A    between atoms: _264  and  _265
REMARK  102  A    between atoms: _264  and  _267
REMARK  103  A    between atoms: _267  and  _268
REMARK  104  A    between atoms: _268  and  _269
REMARK  105  A    between atoms: _274  and  _276
REMARK  106  A    between atoms: _276  and  _277
REMARK  107  A    between atoms: _276  and  _279
REMARK  108  A    between atoms: _279  and  _280
REMARK  109  A    between atoms: _281  and  _282
REMARK  110  A    between atoms: _291  and  _293
REMARK  111  A    between atoms: _293  and  _294
REMARK  112  A    between atoms: _293  and  _296
REMARK  113  A    between atoms: _296  and  _297
REMARK  114  A    between atoms: _302  and  _304
REMARK  115  A    between atoms: _304  and  _305
REMARK  116  A    between atoms: _304  and  _307
REMARK  117  A    between atoms: _307  and  _308
REMARK  118  A    between atoms: _313  and  _314
REMARK  119  A    between atoms: _316  and  _318
REMARK  120  A    between atoms: _318  and  _319
REMARK  121  A    between atoms: _318  and  _321
REMARK  122  A    between atoms: _321  and  _322
REMARK  123  A    between atoms: _322  and  _323
REMARK  124  A    between atoms: _323  and  _324
REMARK  125  A    between atoms: _333  and  _335
REMARK  126  A    between atoms: _335  and  _336
REMARK  127  A    between atoms: _335  and  _338
REMARK  128  A    between atoms: _338  and  _339
REMARK  129  A    between atoms: _342  and  _344
REMARK  130  A    between atoms: _344  and  _345
REMARK  131  A    between atoms: _347  and  _349
REMARK  132  A    between atoms: _349  and  _350
REMARK  133  A    between atoms: _349  and  _352
REMARK  134  A    between atoms: _352  and  _353
REMARK  135  A    between atoms: _355  and  _357
REMARK  136  A    between atoms: _357  and  _358
REMARK  137  A    between atoms: _357  and  _360
REMARK  138  A    between atoms: _360  and  _361
REMARK  139  A    between atoms: _366  and  _367
REMARK  140  A    between atoms: _369  and  _371
REMARK  141  A    between atoms: _371  and  _372
REMARK  142  A    between atoms: _371  and  _374
REMARK  143  A    between atoms: _374  and  _375
REMARK  144  A    between atoms: _380  and  _381
REMARK  145  A    between atoms: _383  and  _385
REMARK  146  A    between atoms: _385  and  _386
REMARK  147  A    between atoms: _388  and  _390
REMARK  148  A    between atoms: _390  and  _391
REMARK  149  A    between atoms: _390  and  _393
REMARK  150  A    between atoms: _393  and  _394
REMARK  151  A    between atoms: _394  and  _395
REMARK  152  A    between atoms: _397  and  _399
REMARK  153  A    between atoms: _399  and  _400
REMARK  154  A    between atoms: _399  and  _402
REMARK  155  A    between atoms: _402  and  _403
REMARK                            x       y       z     vdW  Elec       q    Type
REMARK                         _______ _______ _______ _____ _____    ______ ____
ROOT
ATOM      1  O   HOH     1      20.812  15.201  39.005  0.00  0.00    +0.000 OA
ENDROOT
TORSDOF 0
REMARK  Name = ../refined-set-2016/1flr/1flr_pocket.pdb
REMARK  155 active torsions:
REMARK  status: ('A' for Active; 'I' for Inactive)
REMARK    1  A    between atoms: _1  and  _3
REMARK    2  A    between atoms: _3  and  _4
REMARK    3  A    between atoms: _3  and  _6
REMARK    4  A    between atoms: _6  and  _7
REMARK    5  A    between atoms: _12  and  _14
REMARK    6  A    between atoms: _14  and  _15
REMARK    7  A    between atoms: _14  and  _17
REMARK    8  A    between atoms: _17  and  _18
REMARK    9  A    between atoms: _20  and  _22
REMARK   10  A    between atoms: _22  and  _23
REMARK   11  A    between atoms: _22  and  _25
REMARK   12  A    between atoms: _25  and  _26
REMARK   13  A    between atoms: _31  and  _33
REMARK   14  A    between atoms: _33  and  _34
REMARK   15  A    between atoms: _33  and  _36
REMARK   16  A    between atoms: _36  and  _37
REMARK   17  A    between atoms: _42  and  _44
REMARK   18  A    between atoms: _44  and  _45
REMARK   19  A    between atoms: _44  and  _47
REMARK   20  A    between atoms: _47  and  _48
REMARK   21  A    between atoms: _51  and  _53
REMARK   22  A    between atoms: _53  and  _54
REMARK   23  A    between atoms: _53  and  _56
REMARK   24  A    between atoms: _56  and  _57
REMARK   25  A    between atoms: _62  and  _63
REMARK   26  A    between atoms: _65  and  _67
REMARK   27  A    between atoms: _67  and  _68
REMARK   28  A    between atoms: _67  and  _70
REMARK   29  A    between atoms: _70  and  _71
REMARK   30  A    between atoms: _74  and  _76
REMARK   31  A    between atoms: _76  and  _77
REMARK   32  A    between atoms: _76  and  _79
REMARK   33  A    between atoms: _80  and  _81
REMARK   34  A    between atoms: _81  and  _82
REMARK   35  A    between atoms: _91  and  _93
REMARK   36  A    between atoms: _93  and  _94
REMARK   37  A    between atoms: _93  and  _96
REMARK   38  A    between atoms: _96  and  _97
REMARK   39  A    between atoms: _102  and  _103
REMARK   40  A    between atoms: _105  and  _107
REMARK   41  A    between atoms: _107  and  _108
REMARK   42  A    between atoms: _107  and  _110
REMARK   43  A    between atoms: _110  and  _111
REMARK   44  A    between atoms: _116  and  _117
REMARK   45  A    between atoms: _119  and  _121
REMARK   46  A    between atoms: _121  and  _122
REMARK   47  A    between atoms: _121  and  _124
REMARK   48  A    between atoms: _125  and  _126
REMARK   49  A    between atoms: _126  and  _127
REMARK   50  A    between atoms: _127  and  _128
REMARK   51  A    between atoms: _132  and  _134
REMARK   52  A    between atoms: _134  and  _135
REMARK   53  A    between atoms: _134  and  _137
REMARK   54  A    between atoms: _137  and  _138
REMARK   55  A    between atoms: _140  and  _142
REMARK   56  A    between atoms: _142  and  _143
REMARK   57  A    between atoms: _142  and  _145
REMARK   58  A    between atoms: _145  and  _146
REMARK   59  A    between atoms: _146  and  _147
REMARK   60  A    between atoms: _152  and  _154
REMARK   61  A    between atoms: _154  and  _155
REMARK   62  A    between atoms: _154  and  _157
REMARK   63  A    between atoms: _157  and  _158
REMARK   64  A    between atoms: _160  and  _162
REMARK   65  A    between atoms: _162  and  _163
REMARK   66  A    between atoms: _162  and  _165
REMARK   67  A    between atoms: _165  and  _166
REMARK   68  A    between atoms: _169  and  _171
REMARK   69  A    between atoms: _171  and  _172
REMARK   70  A    between atoms: _171  and  _174
REMARK   71  A    between atoms: _174  and  _175
REMARK   72  A    between atoms: _180  and  _182
REMARK   73  A    between atoms: _182  and  _183
REMARK   74  A    between atoms: _182  and  _185
REMARK   75  A    between atoms: _188  and  _190
REMARK   76  A    between atoms: _190  and  _191
REMARK   77  A    between atoms: _190  and  _193
REMARK   78  A    between atoms: _193  and  _194
REMARK   79  A    between atoms: _204  and  _206
REMARK   80  A    between atoms: _206  and  _207
REMARK   81  A    between atoms: _206  and  _209
REMARK   82  A    between atoms: _209  and  _210
REMARK   83  A    between atoms: _212  and  _214
REMARK   84  A    between atoms: _214  and  _215
REMARK   85  A    between atoms: _214  and  _217
REMARK   86  A    between atoms: _217  and  _218
REMARK   87  A    between atoms: _221  and  _223
REMARK   88  A    between atoms: _223  and  _224
REMARK   89  A    between atoms: _223  and  _226
REMARK   90  A    between atoms: _226  and  _227
REMARK   91  A    between atoms: _232  and  _233
REMARK   92  A    between atoms: _235  and  _237
REMARK   93  A    between atoms: _237  and  _238
REMARK   94  A    between atoms: _237  and  _240
REMARK   95  A    between atoms: _240  and  _241
REMARK   96  A    between atoms: _251  and  _253
REMARK   97  A    between atoms: _253  and  _254
REMARK   98  A    between atoms: _253  and  _256
REMARK   99  A    between atoms: _256  and  _257
REMARK  100  A    between atoms: _262  and  _264
REMARK  101  A    between atoms: _264  and  _265
REMARK  102  A    between atoms: _264  and  _267
REMARK  103  A    between atoms: _267  and  _268
REMARK  104  A    between atoms: _268  and  _269
REMARK  105  A    between atoms: _274  and  _276
REMARK  106  A    between atoms: _276  and  _277
REMARK  107  A    between atoms: _276  and  _279
REMARK  108  A    between atoms: _279  and  _280
REMARK  109  A    between atoms: _281  and  _282
REMARK  110  A    between atoms: _291  and  _293
REMARK  111  A    between atoms: _293  and  _294
REMARK  112  A    between atoms: _293  and  _296
REMARK  113  A    between atoms: _296  and  _297
REMARK  114  A    between atoms: _302  and  _304
REMARK  115  A    between atoms: _304  and  _305
REMARK  116  A    between atoms: _304  and  _307
REMARK  117  A    between atoms: _307  and  _308
REMARK  118  A    between atoms: _313  and  _314
REMARK  119  A    between atoms: _316  and  _318
REMARK  120  A    between atoms: _318  and  _319
REMARK  121  A    between atoms: _318  and  _321
REMARK  122  A    between atoms: _321  and  _322
REMARK  123  A    between atoms: _322  and  _323
REMARK  124  A    between atoms: _323  and  _324
REMARK  125  A    between atoms: _333  and  _335
REMARK  126  A    between atoms: _335  and  _336
REMARK  127  A    between atoms: _335  and  _338
REMARK  128  A    between atoms: _338  and  _339
REMARK  129  A    between atoms: _342  and  _344
REMARK  130  A    between atoms: _344  and  _345
REMARK  131  A    between atoms: _347  and  _349
REMARK  132  A    between atoms: _349  and  _350
REMARK  133  A    between atoms: _349  and  _352
REMARK  134  A    between atoms: _352  and  _353
REMARK  135  A    between atoms: _355  and  _357
REMARK  136  A    between atoms: _357  and  _358
REMARK  137  A    between atoms: _357  and  _360
REMARK  138  A    between atoms: _360  and  _361
REMARK  139  A    between atoms: _366  and  _367
REMARK  140  A    between atoms: _369  and  _371
REMARK  141  A    between atoms: _371  and  _372
REMARK  142  A    between atoms: _371  and  _374
REMARK  143  A    between atoms: _374  and  _375
REMARK  144  A    between atoms: _380  and  _381
REMARK  145  A    between atoms: _383  and  _385
REMARK  146  A    between atoms: _385  and  _386
REMARK  147  A    between atoms: _388  and  _390
REMARK  148  A    between atoms: _390  and  _391
REMARK  149  A    between atoms: _390  and  _393
REMARK  150  A    between atoms: _393  and  _394
REMARK  151  A    between atoms: _394  and  _395
REMARK  152  A    between atoms: _397  and  _399
REMARK  153  A    between atoms: _399  and  _400
REMARK  154  A    between atoms: _399  and  _402
REMARK  155  A    between atoms: _402  and  _403
REMARK                            x       y       z     vdW  Elec       q    Type
REMARK                         _______ _______ _______ _____ _____    ______ ____
ROOT
ATOM      1  O   HOH     1      21.203  22.801  45.085  0.00  0.00    +0.000 OA
ENDROOT
TORSDOF 0
REMARK  Name = ../refined-set-2016/1flr/1flr_pocket.pdb
REMARK  155 active torsions:
REMARK  status: ('A' for Active; 'I' for Inactive)
REMARK    1  A    between atoms: _1  and  _3
REMARK    2  A    between atoms: _3  and  _4
REMARK    3  A    between atoms: _3  and  _6
REMARK    4  A    between atoms: _6  and  _7
REMARK    5  A    between atoms: _12  and  _14
REMARK    6  A    between atoms: _14  and  _15
REMARK    7  A    between atoms: _14  and  _17
REMARK    8  A    between atoms: _17  and  _18
REMARK    9  A    between atoms: _20  and  _22
REMARK   10  A    between atoms: _22  and  _23
REMARK   11  A    between atoms: _22  and  _25
REMARK   12  A    between atoms: _25  and  _26
REMARK   13  A    between atoms: _31  and  _33
REMARK   14  A    between atoms: _33  and  _34
REMARK   15  A    between atoms: _33  and  _36
REMARK   16  A    between atoms: _36  and  _37
REMARK   17  A    between atoms: _42  and  _44
REMARK   18  A    between atoms: _44  and  _45
REMARK   19  A    between atoms: _44  and  _47
REMARK   20  A    between atoms: _47  and  _48
REMARK   21  A    between atoms: _51  and  _53
REMARK   22  A    between atoms: _53  and  _54
REMARK   23  A    between atoms: _53  and  _56
REMARK   24  A    between atoms: _56  and  _57
REMARK   25  A    between atoms: _62  and  _63
REMARK   26  A    between atoms: _65  and  _67
REMARK   27  A    between atoms: _67  and  _68
REMARK   28  A    between atoms: _67  and  _70
REMARK   29  A    between atoms: _70  and  _71
REMARK   30  A    between atoms: _74  and  _76
REMARK   31  A    between atoms: _76  and  _77
REMARK   32  A    between atoms: _76  and  _79
REMARK   33  A    between atoms: _80  and  _81
REMARK   34  A    between atoms: _81  and  _82
REMARK   35  A    between atoms: _91  and  _93
REMARK   36  A    between atoms: _93  and  _94
REMARK   37  A    between atoms: _93  and  _96
REMARK   38  A    between atoms: _96  and  _97
REMARK   39  A    between atoms: _102  and  _103
REMARK   40  A    between atoms: _105  and  _107
REMARK   41  A    between atoms: _107  and  _108
REMARK   42  A    between atoms: _107  and  _110
REMARK   43  A    between atoms: _110  and  _111
REMARK   44  A    between atoms: _116  and  _117
REMARK   45  A    between atoms: _119  and  _121
REMARK   46  A    between atoms: _121  and  _122
REMARK   47  A    between atoms: _121  and  _124
REMARK   48  A    between atoms: _125  and  _126
REMARK   49  A    between atoms: _126  and  _127
REMARK   50  A    between atoms: _127  and  _128
REMARK   51  A    between atoms: _132  and  _134
REMARK   52  A    between atoms: _134  and  _135
REMARK   53  A    between atoms: _134  and  _137
REMARK   54  A    between atoms: _137  and  _138
REMARK   55  A    between atoms: _140  and  _142
REMARK   56  A    between atoms: _142  and  _143
REMARK   57  A    between atoms: _142  and  _145
REMARK   58  A    between atoms: _145  and  _146
REMARK   59  A    between atoms: _146  and  _147
REMARK   60  A    between atoms: _152  and  _154
REMARK   61  A    between atoms: _154  and  _155
REMARK   62  A    between atoms: _154  and  _157
REMARK   63  A    between atoms: _157  and  _158
REMARK   64  A    between atoms: _160  and  _162
REMARK   65  A    between atoms: _162  and  _163
REMARK   66  A    between atoms: _162  and  _165
REMARK   67  A    between atoms: _165  and  _166
REMARK   68  A    between atoms: _169  and  _171
REMARK   69  A    between atoms: _171  and  _172
REMARK   70  A    between atoms: _171  and  _174
REMARK   71  A    between atoms: _174  and  _175
REMARK   72  A    between atoms: _180  and  _182
REMARK   73  A    between atoms: _182  and  _183
REMARK   74  A    between atoms: _182  and  _185
REMARK   75  A    between atoms: _188  and  _190
REMARK   76  A    between atoms: _190  and  _191
REMARK   77  A    between atoms: _190  and  _193
REMARK   78  A    between atoms: _193  and  _194
REMARK   79  A    between atoms: _204  and  _206
REMARK   80  A    between atoms: _206  and  _207
REMARK   81  A    between atoms: _206  and  _209
REMARK   82  A    between atoms: _209  and  _210
REMARK   83  A    between atoms: _212  and  _214
REMARK   84  A    between atoms: _214  and  _215
REMARK   85  A    between atoms: _214  and  _217
REMARK   86  A    between atoms: _217  and  _218
REMARK   87  A    between atoms: _221  and  _223
REMARK   88  A    between atoms: _223  and  _224
REMARK   89  A    between atoms: _223  and  _226
REMARK   90  A    between atoms: _226  and  _227
REMARK   91  A    between atoms: _232  and  _233
REMARK   92  A    between atoms: _235  and  _237
REMARK   93  A    between atoms: _237  and  _238
REMARK   94  A    between atoms: _237  and  _240
REMARK   95  A    between atoms: _240  and  _241
REMARK   96  A    between atoms: _251  and  _253
REMARK   97  A    between atoms: _253  and  _254
REMARK   98  A    between atoms: _253  and  _256
REMARK   99  A    between atoms: _256  and  _257
REMARK  100  A    between atoms: _262  and  _264
REMARK  101  A    between atoms: _264  and  _265
REMARK  102  A    between atoms: _264  and  _267
REMARK  103  A    between atoms: _267  and  _268
REMARK  104  A    between atoms: _268  and  _269
REMARK  105  A    between atoms: _274  and  _276
REMARK  106  A    between atoms: _276  and  _277
REMARK  107  A    between atoms: _276  and  _279
REMARK  108  A    between atoms: _279  and  _280
REMARK  109  A    between atoms: _281  and  _282
REMARK  110  A    between atoms: _291  and  _293
REMARK  111  A    between atoms: _293  and  _294
REMARK  112  A    between atoms: _293  and  _296
REMARK  113  A    between atoms: _296  and  _297
REMARK  114  A    between atoms: _302  and  _304
REMARK  115  A    between atoms: _304  and  _305
REMARK  116  A    between atoms: _304  and  _307
REMARK  117  A    between atoms: _307  and  _308
REMARK  118  A    between atoms: _313  and  _314
REMARK  119  A    between atoms: _316  and  _318
REMARK  120  A    between atoms: _318  and  _319
REMARK  121  A    between atoms: _318  and  _321
REMARK  122  A    between atoms: _321  and  _322
REMARK  123  A    between atoms: _322  and  _323
REMARK  124  A    between atoms: _323  and  _324
REMARK  125  A    between atoms: _333  and  _335
REMARK  126  A    between atoms: _335  and  _336
REMARK  127  A    between atoms: _335  and  _338
REMARK  128  A    between atoms: _338  and  _339
REMARK  129  A    between atoms: _342  and  _344
REMARK  130  A    between atoms: _344  and  _345
REMARK  131  A    between atoms: _347  and  _349
REMARK  132  A    between atoms: _349  and  _350
REMARK  133  A    between atoms: _349  and  _352
REMARK  134  A    between atoms: _352  and  _353
REMARK  135  A    between atoms: _355  and  _357
REMARK  136  A    between atoms: _357  and  _358
REMARK  137  A    between atoms: _357  and  _360
REMARK  138  A    between atoms: _360  and  _361
REMARK  139  A    between atoms: _366  and  _367
REMARK  140  A    between atoms: _369  and  _371
REMARK  141  A    between atoms: _371  and  _372
REMARK  142  A    between atoms: _371  and  _374
REMARK  143  A    between atoms: _374  and  _375
REMARK  144  A    between atoms: _380  and  _381
REMARK  145  A    between atoms: _383  and  _385
REMARK  146  A    between atoms: _385  and  _386
REMARK  147  A    between atoms: _388  and  _390
REMARK  148  A    between atoms: _390  and  _391
REMARK  149  A    between atoms: _390  and  _393
REMARK  150  A    between atoms: _393  and  _394
REMARK  151  A    between atoms: _394  and  _395
REMARK  152  A    between atoms: _397  and  _399
REMARK  153  A    between atoms: _399  and  _400
REMARK  154  A    between atoms: _399  and  _402
REMARK  155  A    between atoms: _402  and  _403
REMARK                            x       y       z     vdW  Elec       q    Type
REMARK                         _______ _______ _______ _____ _____    ______ ____
ROOT
ATOM      1  O   HOH     1      28.455  18.292  38.602  0.00  0.00    +0.000 OA
ENDROOT
TORSDOF 0
REMARK  Name = ../refined-set-2016/1flr/1flr_pocket.pdb
REMARK  155 active torsions:
REMARK  status: ('A' for Active; 'I' for Inactive)
REMARK    1  A    between atoms: _1  and  _3
REMARK    2  A    between atoms: _3  and  _4
REMARK    3  A    between atoms: _3  and  _6
REMARK    4  A    between atoms: _6  and  _7
REMARK    5  A    between atoms: _12  and  _14
REMARK    6  A    between atoms: _14  and  _15
REMARK    7  A    between atoms: _14  and  _17
REMARK    8  A    between atoms: _17  and  _18
REMARK    9  A    between atoms: _20  and  _22
REMARK   10  A    between atoms: _22  and  _23
REMARK   11  A    between atoms: _22  and  _25
REMARK   12  A    between atoms: _25  and  _26
REMARK   13  A    between atoms: _31  and  _33
REMARK   14  A    between atoms: _33  and  _34
REMARK   15  A    between atoms: _33  and  _36
REMARK   16  A    between atoms: _36  and  _37
REMARK   17  A    between atoms: _42  and  _44
REMARK   18  A    between atoms: _44  and  _45
REMARK   19  A    between atoms: _44  and  _47
REMARK   20  A    between atoms: _47  and  _48
REMARK   21  A    between atoms: _51  and  _53
REMARK   22  A    between atoms: _53  and  _54
REMARK   23  A    between atoms: _53  and  _56
REMARK   24  A    between atoms: _56  and  _57
REMARK   25  A    between atoms: _62  and  _63
REMARK   26  A    between atoms: _65  and  _67
REMARK   27  A    between atoms: _67  and  _68
REMARK   28  A    between atoms: _67  and  _70
REMARK   29  A    between atoms: _70  and  _71
REMARK   30  A    between atoms: _74  and  _76
REMARK   31  A    between atoms: _76  and  _77
REMARK   32  A    between atoms: _76  and  _79
REMARK   33  A    between atoms: _80  and  _81
REMARK   34  A    between atoms: _81  and  _82
REMARK   35  A    between atoms: _91  and  _93
REMARK   36  A    between atoms: _93  and  _94
REMARK   37  A    between atoms: _93  and  _96
REMARK   38  A    between atoms: _96  and  _97
REMARK   39  A    between atoms: _102  and  _103
REMARK   40  A    between atoms: _105  and  _107
REMARK   41  A    between atoms: _107  and  _108
REMARK   42  A    between atoms: _107  and  _110
REMARK   43  A    between atoms: _110  and  _111
REMARK   44  A    between atoms: _116  and  _117
REMARK   45  A    between atoms: _119  and  _121
REMARK   46  A    between atoms: _121  and  _122
REMARK   47  A    between atoms: _121  and  _124
REMARK   48  A    between atoms: _125  and  _126
REMARK   49  A    between atoms: _126  and  _127
REMARK   50  A    between atoms: _127  and  _128
REMARK   51  A    between atoms: _132  and  _134
REMARK   52  A    between atoms: _134  and  _135
REMARK   53  A    between atoms: _134  and  _137
REMARK   54  A    between atoms: _137  and  _138
REMARK   55  A    between atoms: _140  and  _142
REMARK   56  A    between atoms: _142  and  _143
REMARK   57  A    between atoms: _142  and  _145
REMARK   58  A    between atoms: _145  and  _146
REMARK   59  A    between atoms: _146  and  _147
REMARK   60  A    between atoms: _152  and  _154
REMARK   61  A    between atoms: _154  and  _155
REMARK   62  A    between atoms: _154  and  _157
REMARK   63  A    between atoms: _157  and  _158
REMARK   64  A    between atoms: _160  and  _162
REMARK   65  A    between atoms: _162  and  _163
REMARK   66  A    between atoms: _162  and  _165
REMARK   67  A    between atoms: _165  and  _166
REMARK   68  A    between atoms: _169  and  _171
REMARK   69  A    between atoms: _171  and  _172
REMARK   70  A    between atoms: _171  and  _174
REMARK   71  A    between atoms: _174  and  _175
REMARK   72  A    between atoms: _180  and  _182
REMARK   73  A    between atoms: _182  and  _183
REMARK   74  A    between atoms: _182  and  _185
REMARK   75  A    between atoms: _188  and  _190
REMARK   76  A    between atoms: _190  and  _191
REMARK   77  A    between atoms: _190  and  _193
REMARK   78  A    between atoms: _193  and  _194
REMARK   79  A    between atoms: _204  and  _206
REMARK   80  A    between atoms: _206  and  _207
REMARK   81  A    between atoms: _206  and  _209
REMARK   82  A    between atoms: _209  and  _210
REMARK   83  A    between atoms: _212  and  _214
REMARK   84  A    between atoms: _214  and  _215
REMARK   85  A    between atoms: _214  and  _217
REMARK   86  A    between atoms: _217  and  _218
REMARK   87  A    between atoms: _221  and  _223
REMARK   88  A    between atoms: _223  and  _224
REMARK   89  A    between atoms: _223  and  _226
REMARK   90  A    between atoms: _226  and  _227
REMARK   91  A    between atoms: _232  and  _233
REMARK   92  A    between atoms: _235  and  _237
REMARK   93  A    between atoms: _237  and  _238
REMARK   94  A    between atoms: _237  and  _240
REMARK   95  A    between atoms: _240  and  _241
REMARK   96  A    between atoms: _251  and  _253
REMARK   97  A    between atoms: _253  and  _254
REMARK   98  A    between atoms: _253  and  _256
REMARK   99  A    between atoms: _256  and  _257
REMARK  100  A    between atoms: _262  and  _264
REMARK  101  A    between atoms: _264  and  _265
REMARK  102  A    between atoms: _264  and  _267
REMARK  103  A    between atoms: _267  and  _268
REMARK  104  A    between atoms: _268  and  _269
REMARK  105  A    between atoms: _274  and  _276
REMARK  106  A    between atoms: _276  and  _277
REMARK  107  A    between atoms: _276  and  _279
REMARK  108  A    between atoms: _279  and  _280
REMARK  109  A    between atoms: _281  and  _282
REMARK  110  A    between atoms: _291  and  _293
REMARK  111  A    between atoms: _293  and  _294
REMARK  112  A    between atoms: _293  and  _296
REMARK  113  A    between atoms: _296  and  _297
REMARK  114  A    between atoms: _302  and  _304
REMARK  115  A    between atoms: _304  and  _305
REMARK  116  A    between atoms: _304  and  _307
REMARK  117  A    between atoms: _307  and  _308
REMARK  118  A    between atoms: _313  and  _314
REMARK  119  A    between atoms: _316  and  _318
REMARK  120  A    between atoms: _318  and  _319
REMARK  121  A    between atoms: _318  and  _321
REMARK  122  A    between atoms: _321  and  _322
REMARK  123  A    between atoms: _322  and  _323
REMARK  124  A    between atoms: _323  and  _324
REMARK  125  A    between atoms: _333  and  _335
REMARK  126  A    between atoms: _335  and  _336
REMARK  127  A    between atoms: _335  and  _338
REMARK  128  A    between atoms: _338  and  _339
REMARK  129  A    between atoms: _342  and  _344
REMARK  130  A    between atoms: _344  and  _345
REMARK  131  A    between atoms: _347  and  _349
REMARK  132  A    between atoms: _349  and  _350
REMARK  133  A    between atoms: _349  and  _352
REMARK  134  A    between atoms: _352  and  _353
REMARK  135  A    between atoms: _355  and  _357
REMARK  136  A    between atoms: _357  and  _358
REMARK  137  A    between atoms: _357  and  _360
REMARK  138  A    between atoms: _360  and  _361
REMARK  139  A    between atoms: _366  and  _367
REMARK  140  A    between atoms: _369  and  _371
REMARK  141  A    between atoms: _371  and  _372
REMARK  142  A    between atoms: _371  and  _374
REMARK  143  A    between atoms: _374  and  _375
REMARK  144  A    between atoms: _380  and  _381
REMARK  145  A    between atoms: _383  and  _385
REMARK  146  A    between atoms: _385  and  _386
REMARK  147  A    between atoms: _388  and  _390
REMARK  148  A    between atoms: _390  and  _391
REMARK  149  A    between atoms: _390  and  _393
REMARK  150  A    between atoms: _393  and  _394
REMARK  151  A    between atoms: _394  and  _395
REMARK  152  A    between atoms: _397  and  _399
REMARK  153  A    between atoms: _399  and  _400
REMARK  154  A    between atoms: _399  and  _402
REMARK  155  A    between atoms: _402  and  _403
REMARK                            x       y       z     vdW  Elec       q    Type
REMARK                         _______ _______ _______ _____ _____    ______ ____
ROOT
ATOM      1  O   HOH     1      21.772  15.233  34.336  0.00  0.00    +0.000 OA
ENDROOT
TORSDOF 0
