REMARK  Name = ../refined-set-2016/3igp/3igp_pocket.pdb
REMARK  147 active torsions:
REMARK  status: ('A' for Active; 'I' for Inactive)
REMARK    1  A    between atoms: _1  and  _3
REMARK    2  A    between atoms: _3  and  _4
REMARK    3  A    between atoms: _3  and  _6
REMARK    4  A    between atoms: _6  and  _7
REMARK    5  A    between atoms: _17  and  _19
REMARK    6  A    between atoms: _19  and  _20
REMARK    7  A    between atoms: _19  and  _22
REMARK    8  A    between atoms: _22  and  _23
REMARK    9  A    between atoms: _28  and  _29
REMARK   10  A    between atoms: _31  and  _33
REMARK   11  A    between atoms: _33  and  _34
REMARK   12  A    between atoms: _33  and  _36
REMARK   13  A    between atoms: _36  and  _37
REMARK   14  A    between atoms: _40  and  _41
REMARK   15  A    between atoms: _46  and  _48
REMARK   16  A    between atoms: _48  and  _49
REMARK   17  A    between atoms: _48  and  _51
REMARK   18  A    between atoms: _51  and  _52
REMARK   19  A    between atoms: _57  and  _59
REMARK   20  A    between atoms: _59  and  _60
REMARK   21  A    between atoms: _59  and  _62
REMARK   22  A    between atoms: _62  and  _63
REMARK   23  A    between atoms: _68  and  _70
REMARK   24  A    between atoms: _70  and  _71
REMARK   25  A    between atoms: _70  and  _73
REMARK   26  A    between atoms: _73  and  _74
REMARK   27  A    between atoms: _79  and  _81
REMARK   28  A    between atoms: _81  and  _82
REMARK   29  A    between atoms: _81  and  _84
REMARK   30  A    between atoms: _84  and  _85
REMARK   31  A    between atoms: _88  and  _90
REMARK   32  A    between atoms: _90  and  _91
REMARK   33  A    between atoms: _90  and  _93
REMARK   34  A    between atoms: _93  and  _94
REMARK   35  A    between atoms: _94  and  _95
REMARK   36  A    between atoms: _100  and  _102
REMARK   37  A    between atoms: _102  and  _103
REMARK   38  A    between atoms: _102  and  _105
REMARK   39  A    between atoms: _105  and  _106
REMARK   40  A    between atoms: _112  and  _114
REMARK   41  A    between atoms: _125  and  _128
REMARK   42  A    between atoms: _128  and  _129
REMARK   43  A    between atoms: _137  and  _138
REMARK   44  A    between atoms: _146  and  _148
REMARK   45  A    between atoms: _148  and  _149
REMARK   46  A    between atoms: _148  and  _151
REMARK   47  A    between atoms: _151  and  _152
REMARK   48  A    between atoms: _152  and  _153
REMARK   49  A    between atoms: _156  and  _158
REMARK   50  A    between atoms: _158  and  _159
REMARK   51  A    between atoms: _158  and  _161
REMARK   52  A    between atoms: _161  and  _162
REMARK   53  A    between atoms: _167  and  _169
REMARK   54  A    between atoms: _169  and  _170
REMARK   55  A    between atoms: _169  and  _172
REMARK   56  A    between atoms: _172  and  _173
REMARK   57  A    between atoms: _173  and  _174
REMARK   58  A    between atoms: _177  and  _179
REMARK   59  A    between atoms: _179  and  _180
REMARK   60  A    between atoms: _179  and  _182
REMARK   61  A    between atoms: _182  and  _183
REMARK   62  A    between atoms: _186  and  _188
REMARK   63  A    between atoms: _188  and  _189
REMARK   64  A    between atoms: _188  and  _191
REMARK   65  A    between atoms: _191  and  _192
REMARK   66  A    between atoms: _193  and  ZN_413
REMARK   67  A    between atoms: _197  and  _199
REMARK   68  A    between atoms: _199  and  _200
REMARK   69  A    between atoms: _199  and  _202
REMARK   70  A    between atoms: _202  and  _203
REMARK   71  A    between atoms: _206  and  _208
REMARK   72  A    between atoms: _208  and  _209
REMARK   73  A    between atoms: _208  and  _211
REMARK   74  A    between atoms: _214  and  _216
REMARK   75  A    between atoms: _216  and  _217
REMARK   76  A    between atoms: _216  and  _219
REMARK   77  A    between atoms: _219  and  _220
REMARK   78  A    between atoms: _225  and  _227
REMARK   79  A    between atoms: _227  and  _228
REMARK   80  A    between atoms: _227  and  _230
REMARK   81  A    between atoms: _230  and  _231
REMARK   82  A    between atoms: _237  and  _239
REMARK   83  A    between atoms: _239  and  _240
REMARK   84  A    between atoms: _239  and  _242
REMARK   85  A    between atoms: _245  and  _247
REMARK   86  A    between atoms: _247  and  _248
REMARK   87  A    between atoms: _247  and  _250
REMARK   88  A    between atoms: _250  and  _251
REMARK   89  A    between atoms: _254  and  _256
REMARK   90  A    between atoms: _256  and  _257
REMARK   91  A    between atoms: _260  and  _262
REMARK   92  A    between atoms: _262  and  _263
REMARK   93  A    between atoms: _262  and  _265
REMARK   94  A    between atoms: _268  and  _270
REMARK   95  A    between atoms: _270  and  _271
REMARK   96  A    between atoms: _270  and  _273
REMARK   97  A    between atoms: _273  and  _274
REMARK   98  A    between atoms: _277  and  _279
REMARK   99  A    between atoms: _279  and  _280
REMARK  100  A    between atoms: _282  and  _284
REMARK  101  A    between atoms: _284  and  _285
REMARK  102  A    between atoms: _287  and  _289
REMARK  103  A    between atoms: _289  and  _290
REMARK  104  A    between atoms: _289  and  _292
REMARK  105  A    between atoms: _292  and  _293
REMARK  106  A    between atoms: _295  and  _297
REMARK  107  A    between atoms: _297  and  _298
REMARK  108  A    between atoms: _297  and  _300
REMARK  109  A    between atoms: _300  and  _301
REMARK  110  A    between atoms: _304  and  _306
REMARK  111  A    between atoms: _306  and  _307
REMARK  112  A    between atoms: _306  and  _309
REMARK  113  A    between atoms: _309  and  _310
REMARK  114  A    between atoms: _313  and  _315
REMARK  115  A    between atoms: _315  and  _316
REMARK  116  A    between atoms: _315  and  _318
REMARK  117  A    between atoms: _318  and  _319
REMARK  118  A    between atoms: _323  and  _324
REMARK  119  A    between atoms: _330  and  _331
REMARK  120  A    between atoms: _336  and  _338
REMARK  121  A    between atoms: _338  and  _339
REMARK  122  A    between atoms: _338  and  _341
REMARK  123  A    between atoms: _341  and  _342
REMARK  124  A    between atoms: _345  and  _347
REMARK  125  A    between atoms: _347  and  _348
REMARK  126  A    between atoms: _347  and  _350
REMARK  127  A    between atoms: _350  and  _351
REMARK  128  A    between atoms: _354  and  _356
REMARK  129  A    between atoms: _356  and  _357
REMARK  130  A    between atoms: _356  and  _359
REMARK  131  A    between atoms: _361  and  _363
REMARK  132  A    between atoms: _363  and  _364
REMARK  133  A    between atoms: _363  and  _366
REMARK  134  A    between atoms: _369  and  _371
REMARK  135  A    between atoms: _371  and  _372
REMARK  136  A    between atoms: _371  and  _374
REMARK  137  A    between atoms: _374  and  _375
REMARK  138  A    between atoms: _385  and  _387
REMARK  139  A    between atoms: _387  and  _388
REMARK  140  A    between atoms: _387  and  _390
REMARK  141  A    between atoms: _390  and  _391
REMARK  142  A    between atoms: _396  and  _398
REMARK  143  A    between atoms: _398  and  _399
REMARK  144  A    between atoms: _398  and  _401
REMARK  145  A    between atoms: _401  and  _402
REMARK  146  A    between atoms: _402  and  _403
REMARK  147  A    between atoms: _403  and  _404
REMARK                            x       y       z     vdW  Elec       q    Type
REMARK                         _______ _______ _______ _____ _____    ______ ____
ROOT
ATOM      1  CG  TRP A   1       5.874   0.038  12.171  0.00  0.00    -0.002 A 
ATOM      2  CD2 TRP A   1       4.518  -0.412  12.099  0.00  0.00    +0.013 A 
ATOM      3  CE3 TRP A   1       3.895  -1.648  12.297  0.00  0.00    +0.001 A 
ATOM      4  CZ3 TRP A   1       2.521  -1.728  12.133  0.00  0.00    +0.000 A 
ATOM      5  CH2 TRP A   1       1.761  -0.603  11.783  0.00  0.00    +0.001 A 
ATOM      6  CZ2 TRP A   1       2.343   0.616  11.591  0.00  0.00    +0.017 A 
ATOM      7  CE2 TRP A   1       3.726   0.700  11.750  0.00  0.00    +0.056 A 
ATOM      8  NE1 TRP A   1       4.561   1.777  11.627  0.00  0.00    -0.352 N 
ATOM      9  HE1 TRP A   1       4.269   2.742  11.371  0.00  0.00    +0.166 HD
ATOM     10  CD1 TRP A   1       5.841   1.380  11.895  0.00  0.00    +0.068 A 
ENDROOT
BRANCH   1  11
ATOM     11  CB  TRP A   1       7.086  -0.786  12.524  0.00  0.00    +0.053 C 
BRANCH  11  12
ATOM     12  CA  TRP A   1       7.719  -1.517  11.337  0.00  0.00    +0.137 C 
BRANCH  12  13
ATOM     13  N   TRP A   1       8.348  -0.614  10.382  0.00  0.00    -0.239 NA
ATOM     14  H   TRP A   1       8.214   0.414  10.466  0.00  0.00    +0.142 HD
ENDBRANCH  12  13
BRANCH  12  15
ATOM     15  C   TRP A   1       6.674  -2.325  10.584  0.00  0.00    +0.224 C 
ATOM     16  O   TRP A   1       6.129  -1.880   9.576  0.00  0.00    -0.287 OA
ENDBRANCH  12  15
ENDBRANCH  11  12
ENDBRANCH   1  11
TORSDOF 4
REMARK  Name = ../refined-set-2016/3igp/3igp_pocket.pdb
REMARK  147 active torsions:
REMARK  status: ('A' for Active; 'I' for Inactive)
REMARK    1  A    between atoms: _1  and  _3
REMARK    2  A    between atoms: _3  and  _4
REMARK    3  A    between atoms: _3  and  _6
REMARK    4  A    between atoms: _6  and  _7
REMARK    5  A    between atoms: _17  and  _19
REMARK    6  A    between atoms: _19  and  _20
REMARK    7  A    between atoms: _19  and  _22
REMARK    8  A    between atoms: _22  and  _23
REMARK    9  A    between atoms: _28  and  _29
REMARK   10  A    between atoms: _31  and  _33
REMARK   11  A    between atoms: _33  and  _34
REMARK   12  A    between atoms: _33  and  _36
REMARK   13  A    between atoms: _36  and  _37
REMARK   14  A    between atoms: _40  and  _41
REMARK   15  A    between atoms: _46  and  _48
REMARK   16  A    between atoms: _48  and  _49
REMARK   17  A    between atoms: _48  and  _51
REMARK   18  A    between atoms: _51  and  _52
REMARK   19  A    between atoms: _57  and  _59
REMARK   20  A    between atoms: _59  and  _60
REMARK   21  A    between atoms: _59  and  _62
REMARK   22  A    between atoms: _62  and  _63
REMARK   23  A    between atoms: _68  and  _70
REMARK   24  A    between atoms: _70  and  _71
REMARK   25  A    between atoms: _70  and  _73
REMARK   26  A    between atoms: _73  and  _74
REMARK   27  A    between atoms: _79  and  _81
REMARK   28  A    between atoms: _81  and  _82
REMARK   29  A    between atoms: _81  and  _84
REMARK   30  A    between atoms: _84  and  _85
REMARK   31  A    between atoms: _88  and  _90
REMARK   32  A    between atoms: _90  and  _91
REMARK   33  A    between atoms: _90  and  _93
REMARK   34  A    between atoms: _93  and  _94
REMARK   35  A    between atoms: _94  and  _95
REMARK   36  A    between atoms: _100  and  _102
REMARK   37  A    between atoms: _102  and  _103
REMARK   38  A    between atoms: _102  and  _105
REMARK   39  A    between atoms: _105  and  _106
REMARK   40  A    between atoms: _112  and  _114
REMARK   41  A    between atoms: _125  and  _128
REMARK   42  A    between atoms: _128  and  _129
REMARK   43  A    between atoms: _137  and  _138
REMARK   44  A    between atoms: _146  and  _148
REMARK   45  A    between atoms: _148  and  _149
REMARK   46  A    between atoms: _148  and  _151
REMARK   47  A    between atoms: _151  and  _152
REMARK   48  A    between atoms: _152  and  _153
REMARK   49  A    between atoms: _156  and  _158
REMARK   50  A    between atoms: _158  and  _159
REMARK   51  A    between atoms: _158  and  _161
REMARK   52  A    between atoms: _161  and  _162
REMARK   53  A    between atoms: _167  and  _169
REMARK   54  A    between atoms: _169  and  _170
REMARK   55  A    between atoms: _169  and  _172
REMARK   56  A    between atoms: _172  and  _173
REMARK   57  A    between atoms: _173  and  _174
REMARK   58  A    between atoms: _177  and  _179
REMARK   59  A    between atoms: _179  and  _180
REMARK   60  A    between atoms: _179  and  _182
REMARK   61  A    between atoms: _182  and  _183
REMARK   62  A    between atoms: _186  and  _188
REMARK   63  A    between atoms: _188  and  _189
REMARK   64  A    between atoms: _188  and  _191
REMARK   65  A    between atoms: _191  and  _192
REMARK   66  A    between atoms: _193  and  ZN_413
REMARK   67  A    between atoms: _197  and  _199
REMARK   68  A    between atoms: _199  and  _200
REMARK   69  A    between atoms: _199  and  _202
REMARK   70  A    between atoms: _202  and  _203
REMARK   71  A    between atoms: _206  and  _208
REMARK   72  A    between atoms: _208  and  _209
REMARK   73  A    between atoms: _208  and  _211
REMARK   74  A    between atoms: _214  and  _216
REMARK   75  A    between atoms: _216  and  _217
REMARK   76  A    between atoms: _216  and  _219
REMARK   77  A    between atoms: _219  and  _220
REMARK   78  A    between atoms: _225  and  _227
REMARK   79  A    between atoms: _227  and  _228
REMARK   80  A    between atoms: _227  and  _230
REMARK   81  A    between atoms: _230  and  _231
REMARK   82  A    between atoms: _237  and  _239
REMARK   83  A    between atoms: _239  and  _240
REMARK   84  A    between atoms: _239  and  _242
REMARK   85  A    between atoms: _245  and  _247
REMARK   86  A    between atoms: _247  and  _248
REMARK   87  A    between atoms: _247  and  _250
REMARK   88  A    between atoms: _250  and  _251
REMARK   89  A    between atoms: _254  and  _256
REMARK   90  A    between atoms: _256  and  _257
REMARK   91  A    between atoms: _260  and  _262
REMARK   92  A    between atoms: _262  and  _263
REMARK   93  A    between atoms: _262  and  _265
REMARK   94  A    between atoms: _268  and  _270
REMARK   95  A    between atoms: _270  and  _271
REMARK   96  A    between atoms: _270  and  _273
REMARK   97  A    between atoms: _273  and  _274
REMARK   98  A    between atoms: _277  and  _279
REMARK   99  A    between atoms: _279  and  _280
REMARK  100  A    between atoms: _282  and  _284
REMARK  101  A    between atoms: _284  and  _285
REMARK  102  A    between atoms: _287  and  _289
REMARK  103  A    between atoms: _289  and  _290
REMARK  104  A    between atoms: _289  and  _292
REMARK  105  A    between atoms: _292  and  _293
REMARK  106  A    between atoms: _295  and  _297
REMARK  107  A    between atoms: _297  and  _298
REMARK  108  A    between atoms: _297  and  _300
REMARK  109  A    between atoms: _300  and  _301
REMARK  110  A    between atoms: _304  and  _306
REMARK  111  A    between atoms: _306  and  _307
REMARK  112  A    between atoms: _306  and  _309
REMARK  113  A    between atoms: _309  and  _310
REMARK  114  A    between atoms: _313  and  _315
REMARK  115  A    between atoms: _315  and  _316
REMARK  116  A    between atoms: _315  and  _318
REMARK  117  A    between atoms: _318  and  _319
REMARK  118  A    between atoms: _323  and  _324
REMARK  119  A    between atoms: _330  and  _331
REMARK  120  A    between atoms: _336  and  _338
REMARK  121  A    between atoms: _338  and  _339
REMARK  122  A    between atoms: _338  and  _341
REMARK  123  A    between atoms: _341  and  _342
REMARK  124  A    between atoms: _345  and  _347
REMARK  125  A    between atoms: _347  and  _348
REMARK  126  A    between atoms: _347  and  _350
REMARK  127  A    between atoms: _350  and  _351
REMARK  128  A    between atoms: _354  and  _356
REMARK  129  A    between atoms: _356  and  _357
REMARK  130  A    between atoms: _356  and  _359
REMARK  131  A    between atoms: _361  and  _363
REMARK  132  A    between atoms: _363  and  _364
REMARK  133  A    between atoms: _363  and  _366
REMARK  134  A    between atoms: _369  and  _371
REMARK  135  A    between atoms: _371  and  _372
REMARK  136  A    between atoms: _371  and  _374
REMARK  137  A    between atoms: _374  and  _375
REMARK  138  A    between atoms: _385  and  _387
REMARK  139  A    between atoms: _387  and  _388
REMARK  140  A    between atoms: _387  and  _390
REMARK  141  A    between atoms: _390  and  _391
REMARK  142  A    between atoms: _396  and  _398
REMARK  143  A    between atoms: _398  and  _399
REMARK  144  A    between atoms: _398  and  _401
REMARK  145  A    between atoms: _401  and  _402
REMARK  146  A    between atoms: _402  and  _403
REMARK  147  A    between atoms: _403  and  _404
REMARK                            x       y       z     vdW  Elec       q    Type
REMARK                         _______ _______ _______ _____ _____    ______ ____
ROOT
ATOM      1  CG  TYR A   1       1.889  -6.950  11.844  0.00  0.00    -0.020 A 
ATOM      2  CD2 TYR A   1       1.485  -6.937  13.178  0.00  0.00    -0.001 A 
ATOM      3  CE2 TYR A   1       0.639  -5.935  13.677  0.00  0.00    +0.036 A 
ATOM      4  CZ  TYR A   1       0.195  -4.938  12.833  0.00  0.00    +0.134 A 
ATOM      5  CE1 TYR A   1       0.585  -4.941  11.491  0.00  0.00    +0.036 A 
ATOM      6  CD1 TYR A   1       1.425  -5.937  11.011  0.00  0.00    -0.001 A 
ENDROOT
BRANCH   4   7
ATOM      7  OH  TYR A   1      -0.632  -3.942  13.304  0.00  0.00    -0.506 OA
ATOM      8  HH  TYR A   1      -0.808  -4.089  14.267  0.00  0.00    +0.292 HD
ENDBRANCH   4   7
BRANCH   1   9
ATOM      9  CB  TYR A   1       2.779  -8.052  11.318  0.00  0.00    +0.051 C 
BRANCH   9  10
ATOM     10  CA  TYR A   1       4.273  -7.823  11.565  0.00  0.00    +0.137 C 
BRANCH  10  11
ATOM     11  N   TYR A   1       4.682  -6.642  10.833  0.00  0.00    -0.239 NA
ATOM     12  H   TYR A   1       4.748  -6.696   9.796  0.00  0.00    +0.142 HD
ENDBRANCH  10  11
BRANCH  10  13
ATOM     13  C   TYR A   1       5.068  -9.074  11.180  0.00  0.00    +0.224 C 
ATOM     14  O   TYR A   1       4.698 -10.187  11.561  0.00  0.00    -0.287 OA
ENDBRANCH  10  13
ENDBRANCH   9  10
ENDBRANCH   1   9
TORSDOF 5
REMARK  Name = ../refined-set-2016/3igp/3igp_pocket.pdb
REMARK  147 active torsions:
REMARK  status: ('A' for Active; 'I' for Inactive)
REMARK    1  A    between atoms: _1  and  _3
REMARK    2  A    between atoms: _3  and  _4
REMARK    3  A    between atoms: _3  and  _6
REMARK    4  A    between atoms: _6  and  _7
REMARK    5  A    between atoms: _17  and  _19
REMARK    6  A    between atoms: _19  and  _20
REMARK    7  A    between atoms: _19  and  _22
REMARK    8  A    between atoms: _22  and  _23
REMARK    9  A    between atoms: _28  and  _29
REMARK   10  A    between atoms: _31  and  _33
REMARK   11  A    between atoms: _33  and  _34
REMARK   12  A    between atoms: _33  and  _36
REMARK   13  A    between atoms: _36  and  _37
REMARK   14  A    between atoms: _40  and  _41
REMARK   15  A    between atoms: _46  and  _48
REMARK   16  A    between atoms: _48  and  _49
REMARK   17  A    between atoms: _48  and  _51
REMARK   18  A    between atoms: _51  and  _52
REMARK   19  A    between atoms: _57  and  _59
REMARK   20  A    between atoms: _59  and  _60
REMARK   21  A    between atoms: _59  and  _62
REMARK   22  A    between atoms: _62  and  _63
REMARK   23  A    between atoms: _68  and  _70
REMARK   24  A    between atoms: _70  and  _71
REMARK   25  A    between atoms: _70  and  _73
REMARK   26  A    between atoms: _73  and  _74
REMARK   27  A    between atoms: _79  and  _81
REMARK   28  A    between atoms: _81  and  _82
REMARK   29  A    between atoms: _81  and  _84
REMARK   30  A    between atoms: _84  and  _85
REMARK   31  A    between atoms: _88  and  _90
REMARK   32  A    between atoms: _90  and  _91
REMARK   33  A    between atoms: _90  and  _93
REMARK   34  A    between atoms: _93  and  _94
REMARK   35  A    between atoms: _94  and  _95
REMARK   36  A    between atoms: _100  and  _102
REMARK   37  A    between atoms: _102  and  _103
REMARK   38  A    between atoms: _102  and  _105
REMARK   39  A    between atoms: _105  and  _106
REMARK   40  A    between atoms: _112  and  _114
REMARK   41  A    between atoms: _125  and  _128
REMARK   42  A    between atoms: _128  and  _129
REMARK   43  A    between atoms: _137  and  _138
REMARK   44  A    between atoms: _146  and  _148
REMARK   45  A    between atoms: _148  and  _149
REMARK   46  A    between atoms: _148  and  _151
REMARK   47  A    between atoms: _151  and  _152
REMARK   48  A    between atoms: _152  and  _153
REMARK   49  A    between atoms: _156  and  _158
REMARK   50  A    between atoms: _158  and  _159
REMARK   51  A    between atoms: _158  and  _161
REMARK   52  A    between atoms: _161  and  _162
REMARK   53  A    between atoms: _167  and  _169
REMARK   54  A    between atoms: _169  and  _170
REMARK   55  A    between atoms: _169  and  _172
REMARK   56  A    between atoms: _172  and  _173
REMARK   57  A    between atoms: _173  and  _174
REMARK   58  A    between atoms: _177  and  _179
REMARK   59  A    between atoms: _179  and  _180
REMARK   60  A    between atoms: _179  and  _182
REMARK   61  A    between atoms: _182  and  _183
REMARK   62  A    between atoms: _186  and  _188
REMARK   63  A    between atoms: _188  and  _189
REMARK   64  A    between atoms: _188  and  _191
REMARK   65  A    between atoms: _191  and  _192
REMARK   66  A    between atoms: _193  and  ZN_413
REMARK   67  A    between atoms: _197  and  _199
REMARK   68  A    between atoms: _199  and  _200
REMARK   69  A    between atoms: _199  and  _202
REMARK   70  A    between atoms: _202  and  _203
REMARK   71  A    between atoms: _206  and  _208
REMARK   72  A    between atoms: _208  and  _209
REMARK   73  A    between atoms: _208  and  _211
REMARK   74  A    between atoms: _214  and  _216
REMARK   75  A    between atoms: _216  and  _217
REMARK   76  A    between atoms: _216  and  _219
REMARK   77  A    between atoms: _219  and  _220
REMARK   78  A    between atoms: _225  and  _227
REMARK   79  A    between atoms: _227  and  _228
REMARK   80  A    between atoms: _227  and  _230
REMARK   81  A    between atoms: _230  and  _231
REMARK   82  A    between atoms: _237  and  _239
REMARK   83  A    between atoms: _239  and  _240
REMARK   84  A    between atoms: _239  and  _242
REMARK   85  A    between atoms: _245  and  _247
REMARK   86  A    between atoms: _247  and  _248
REMARK   87  A    between atoms: _247  and  _250
REMARK   88  A    between atoms: _250  and  _251
REMARK   89  A    between atoms: _254  and  _256
REMARK   90  A    between atoms: _256  and  _257
REMARK   91  A    between atoms: _260  and  _262
REMARK   92  A    between atoms: _262  and  _263
REMARK   93  A    between atoms: _262  and  _265
REMARK   94  A    between atoms: _268  and  _270
REMARK   95  A    between atoms: _270  and  _271
REMARK   96  A    between atoms: _270  and  _273
REMARK   97  A    between atoms: _273  and  _274
REMARK   98  A    between atoms: _277  and  _279
REMARK   99  A    between atoms: _279  and  _280
REMARK  100  A    between atoms: _282  and  _284
REMARK  101  A    between atoms: _284  and  _285
REMARK  102  A    between atoms: _287  and  _289
REMARK  103  A    between atoms: _289  and  _290
REMARK  104  A    between atoms: _289  and  _292
REMARK  105  A    between atoms: _292  and  _293
REMARK  106  A    between atoms: _295  and  _297
REMARK  107  A    between atoms: _297  and  _298
REMARK  108  A    between atoms: _297  and  _300
REMARK  109  A    between atoms: _300  and  _301
REMARK  110  A    between atoms: _304  and  _306
REMARK  111  A    between atoms: _306  and  _307
REMARK  112  A    between atoms: _306  and  _309
REMARK  113  A    between atoms: _309  and  _310
REMARK  114  A    between atoms: _313  and  _315
REMARK  115  A    between atoms: _315  and  _316
REMARK  116  A    between atoms: _315  and  _318
REMARK  117  A    between atoms: _318  and  _319
REMARK  118  A    between atoms: _323  and  _324
REMARK  119  A    between atoms: _330  and  _331
REMARK  120  A    between atoms: _336  and  _338
REMARK  121  A    between atoms: _338  and  _339
REMARK  122  A    between atoms: _338  and  _341
REMARK  123  A    between atoms: _341  and  _342
REMARK  124  A    between atoms: _345  and  _347
REMARK  125  A    between atoms: _347  and  _348
REMARK  126  A    between atoms: _347  and  _350
REMARK  127  A    between atoms: _350  and  _351
REMARK  128  A    between atoms: _354  and  _356
REMARK  129  A    between atoms: _356  and  _357
REMARK  130  A    between atoms: _356  and  _359
REMARK  131  A    between atoms: _361  and  _363
REMARK  132  A    between atoms: _363  and  _364
REMARK  133  A    between atoms: _363  and  _366
REMARK  134  A    between atoms: _369  and  _371
REMARK  135  A    between atoms: _371  and  _372
REMARK  136  A    between atoms: _371  and  _374
REMARK  137  A    between atoms: _374  and  _375
REMARK  138  A    between atoms: _385  and  _387
REMARK  139  A    between atoms: _387  and  _388
REMARK  140  A    between atoms: _387  and  _390
REMARK  141  A    between atoms: _390  and  _391
REMARK  142  A    between atoms: _396  and  _398
REMARK  143  A    between atoms: _398  and  _399
REMARK  144  A    between atoms: _398  and  _401
REMARK  145  A    between atoms: _401  and  _402
REMARK  146  A    between atoms: _402  and  _403
REMARK  147  A    between atoms: _403  and  _404
REMARK                            x       y       z     vdW  Elec       q    Type
REMARK                         _______ _______ _______ _____ _____    ______ ____
ROOT
ATOM      1  C   SER A   1      -2.282  -3.057  23.136  0.00  0.00    +0.244 C 
ATOM      2  N   PRO A   2      -2.923  -4.215  22.878  0.00  0.00    -0.273 N 
ATOM      3  CA  PRO A   2      -4.058  -4.755  23.595  0.00  0.00    +0.140 C 
ATOM      4  CB  PRO A   2      -4.580  -5.817  22.637  0.00  0.00    +0.030 C 
ATOM      5  CG  PRO A   2      -3.350  -6.343  22.022  0.00  0.00    +0.024 C 
ATOM      6  CD  PRO A   2      -2.499  -5.135  21.804  0.00  0.00    +0.094 C 
ATOM      7  O   SER A   1      -1.318  -2.665  22.443  0.00  0.00    -0.273 OA
ENDROOT
BRANCH   3   8
ATOM      8  C   PRO A   2      -3.641  -5.404  24.911  0.00  0.00    +0.227 C 
ATOM      9  O   PRO A   2      -2.456  -5.441  25.250  0.00  0.00    -0.286 OA
ENDBRANCH   3   8
BRANCH   1  10
ATOM     10  CA  SER A   1      -2.818  -2.199  24.277  0.00  0.00    +0.175 C 
BRANCH  10  11
ATOM     11  N   SER A   1      -1.768  -1.347  24.811  0.00  0.00    -0.236 NA
ATOM     12  H   SER A   1      -1.264  -0.730  24.142  0.00  0.00    +0.142 HD
ENDBRANCH  10  11
BRANCH  10  13
ATOM     13  CB  SER A   1      -3.955  -1.342  23.740  0.00  0.00    +0.163 C 
BRANCH  13  14
ATOM     14  OG  SER A   1      -4.618  -0.642  24.788  0.00  0.00    -0.380 OA
ATOM     15  H   SER A   1      -4.992  -1.293  25.433  0.00  0.00    +0.211 HD
ENDBRANCH  13  14
ENDBRANCH  10  13
ENDBRANCH   1  10
TORSDOF 5
REMARK  Name = ../refined-set-2016/3igp/3igp_pocket.pdb
REMARK  147 active torsions:
REMARK  status: ('A' for Active; 'I' for Inactive)
REMARK    1  A    between atoms: _1  and  _3
REMARK    2  A    between atoms: _3  and  _4
REMARK    3  A    between atoms: _3  and  _6
REMARK    4  A    between atoms: _6  and  _7
REMARK    5  A    between atoms: _17  and  _19
REMARK    6  A    between atoms: _19  and  _20
REMARK    7  A    between atoms: _19  and  _22
REMARK    8  A    between atoms: _22  and  _23
REMARK    9  A    between atoms: _28  and  _29
REMARK   10  A    between atoms: _31  and  _33
REMARK   11  A    between atoms: _33  and  _34
REMARK   12  A    between atoms: _33  and  _36
REMARK   13  A    between atoms: _36  and  _37
REMARK   14  A    between atoms: _40  and  _41
REMARK   15  A    between atoms: _46  and  _48
REMARK   16  A    between atoms: _48  and  _49
REMARK   17  A    between atoms: _48  and  _51
REMARK   18  A    between atoms: _51  and  _52
REMARK   19  A    between atoms: _57  and  _59
REMARK   20  A    between atoms: _59  and  _60
REMARK   21  A    between atoms: _59  and  _62
REMARK   22  A    between atoms: _62  and  _63
REMARK   23  A    between atoms: _68  and  _70
REMARK   24  A    between atoms: _70  and  _71
REMARK   25  A    between atoms: _70  and  _73
REMARK   26  A    between atoms: _73  and  _74
REMARK   27  A    between atoms: _79  and  _81
REMARK   28  A    between atoms: _81  and  _82
REMARK   29  A    between atoms: _81  and  _84
REMARK   30  A    between atoms: _84  and  _85
REMARK   31  A    between atoms: _88  and  _90
REMARK   32  A    between atoms: _90  and  _91
REMARK   33  A    between atoms: _90  and  _93
REMARK   34  A    between atoms: _93  and  _94
REMARK   35  A    between atoms: _94  and  _95
REMARK   36  A    between atoms: _100  and  _102
REMARK   37  A    between atoms: _102  and  _103
REMARK   38  A    between atoms: _102  and  _105
REMARK   39  A    between atoms: _105  and  _106
REMARK   40  A    between atoms: _112  and  _114
REMARK   41  A    between atoms: _125  and  _128
REMARK   42  A    between atoms: _128  and  _129
REMARK   43  A    between atoms: _137  and  _138
REMARK   44  A    between atoms: _146  and  _148
REMARK   45  A    between atoms: _148  and  _149
REMARK   46  A    between atoms: _148  and  _151
REMARK   47  A    between atoms: _151  and  _152
REMARK   48  A    between atoms: _152  and  _153
REMARK   49  A    between atoms: _156  and  _158
REMARK   50  A    between atoms: _158  and  _159
REMARK   51  A    between atoms: _158  and  _161
REMARK   52  A    between atoms: _161  and  _162
REMARK   53  A    between atoms: _167  and  _169
REMARK   54  A    between atoms: _169  and  _170
REMARK   55  A    between atoms: _169  and  _172
REMARK   56  A    between atoms: _172  and  _173
REMARK   57  A    between atoms: _173  and  _174
REMARK   58  A    between atoms: _177  and  _179
REMARK   59  A    between atoms: _179  and  _180
REMARK   60  A    between atoms: _179  and  _182
REMARK   61  A    between atoms: _182  and  _183
REMARK   62  A    between atoms: _186  and  _188
REMARK   63  A    between atoms: _188  and  _189
REMARK   64  A    between atoms: _188  and  _191
REMARK   65  A    between atoms: _191  and  _192
REMARK   66  A    between atoms: _193  and  ZN_413
REMARK   67  A    between atoms: _197  and  _199
REMARK   68  A    between atoms: _199  and  _200
REMARK   69  A    between atoms: _199  and  _202
REMARK   70  A    between atoms: _202  and  _203
REMARK   71  A    between atoms: _206  and  _208
REMARK   72  A    between atoms: _208  and  _209
REMARK   73  A    between atoms: _208  and  _211
REMARK   74  A    between atoms: _214  and  _216
REMARK   75  A    between atoms: _216  and  _217
REMARK   76  A    between atoms: _216  and  _219
REMARK   77  A    between atoms: _219  and  _220
REMARK   78  A    between atoms: _225  and  _227
REMARK   79  A    between atoms: _227  and  _228
REMARK   80  A    between atoms: _227  and  _230
REMARK   81  A    between atoms: _230  and  _231
REMARK   82  A    between atoms: _237  and  _239
REMARK   83  A    between atoms: _239  and  _240
REMARK   84  A    between atoms: _239  and  _242
REMARK   85  A    between atoms: _245  and  _247
REMARK   86  A    between atoms: _247  and  _248
REMARK   87  A    between atoms: _247  and  _250
REMARK   88  A    between atoms: _250  and  _251
REMARK   89  A    between atoms: _254  and  _256
REMARK   90  A    between atoms: _256  and  _257
REMARK   91  A    between atoms: _260  and  _262
REMARK   92  A    between atoms: _262  and  _263
REMARK   93  A    between atoms: _262  and  _265
REMARK   94  A    between atoms: _268  and  _270
REMARK   95  A    between atoms: _270  and  _271
REMARK   96  A    between atoms: _270  and  _273
REMARK   97  A    between atoms: _273  and  _274
REMARK   98  A    between atoms: _277  and  _279
REMARK   99  A    between atoms: _279  and  _280
REMARK  100  A    between atoms: _282  and  _284
REMARK  101  A    between atoms: _284  and  _285
REMARK  102  A    between atoms: _287  and  _289
REMARK  103  A    between atoms: _289  and  _290
REMARK  104  A    between atoms: _289  and  _292
REMARK  105  A    between atoms: _292  and  _293
REMARK  106  A    between atoms: _295  and  _297
REMARK  107  A    between atoms: _297  and  _298
REMARK  108  A    between atoms: _297  and  _300
REMARK  109  A    between atoms: _300  and  _301
REMARK  110  A    between atoms: _304  and  _306
REMARK  111  A    between atoms: _306  and  _307
REMARK  112  A    between atoms: _306  and  _309
REMARK  113  A    between atoms: _309  and  _310
REMARK  114  A    between atoms: _313  and  _315
REMARK  115  A    between atoms: _315  and  _316
REMARK  116  A    between atoms: _315  and  _318
REMARK  117  A    between atoms: _318  and  _319
REMARK  118  A    between atoms: _323  and  _324
REMARK  119  A    between atoms: _330  and  _331
REMARK  120  A    between atoms: _336  and  _338
REMARK  121  A    between atoms: _338  and  _339
REMARK  122  A    between atoms: _338  and  _341
REMARK  123  A    between atoms: _341  and  _342
REMARK  124  A    between atoms: _345  and  _347
REMARK  125  A    between atoms: _347  and  _348
REMARK  126  A    between atoms: _347  and  _350
REMARK  127  A    between atoms: _350  and  _351
REMARK  128  A    between atoms: _354  and  _356
REMARK  129  A    between atoms: _356  and  _357
REMARK  130  A    between atoms: _356  and  _359
REMARK  131  A    between atoms: _361  and  _363
REMARK  132  A    between atoms: _363  and  _364
REMARK  133  A    between atoms: _363  and  _366
REMARK  134  A    between atoms: _369  and  _371
REMARK  135  A    between atoms: _371  and  _372
REMARK  136  A    between atoms: _371  and  _374
REMARK  137  A    between atoms: _374  and  _375
REMARK  138  A    between atoms: _385  and  _387
REMARK  139  A    between atoms: _387  and  _388
REMARK  140  A    between atoms: _387  and  _390
REMARK  141  A    between atoms: _390  and  _391
REMARK  142  A    between atoms: _396  and  _398
REMARK  143  A    between atoms: _398  and  _399
REMARK  144  A    between atoms: _398  and  _401
REMARK  145  A    between atoms: _401  and  _402
REMARK  146  A    between atoms: _402  and  _403
REMARK  147  A    between atoms: _403  and  _404
REMARK                            x       y       z     vdW  Elec       q    Type
REMARK                         _______ _______ _______ _____ _____    ______ ____
ROOT
ATOM      1  CB  ASN A   1      -2.589   1.854   5.155  0.00  0.00    +0.110 C 
ENDROOT
BRANCH   1   2
ATOM      2  CG  ASN A   1      -2.886   1.012   6.390  0.00  0.00    +0.221 C 
ATOM      3  ND2 ASN A   1      -3.470   1.655   7.406  0.00  0.00    -0.329 N 
ATOM      4 HD21 ASN A   1      -3.718   1.139   8.274  0.00  0.00    +0.145 HD
ATOM      5 HD22 ASN A   1      -3.676   2.671   7.328  0.00  0.00    +0.145 HD
ATOM      6  OD1 ASN A   1      -2.623  -0.184   6.434  0.00  0.00    -0.275 OA
ENDBRANCH   1   2
BRANCH   1   7
ATOM      7  CA  ASN A   1      -2.264   1.005   3.906  0.00  0.00    +0.142 C 
BRANCH   7   8
ATOM      8  N   ASN A   1      -3.428   0.213   3.466  0.00  0.00    -0.239 NA
ATOM      9  H   ASN A   1      -4.017  -0.258   4.182  0.00  0.00    +0.142 HD
ENDBRANCH   7   8
BRANCH   7  10
ATOM     10  C   ASN A   1      -1.015   0.167   4.178  0.00  0.00    +0.225 C 
ATOM     11  O   ASN A   1      -0.065   0.651   4.781  0.00  0.00    -0.287 OA
ENDBRANCH   7  10
ENDBRANCH   1   7
TORSDOF 4
REMARK  Name = ../refined-set-2016/3igp/3igp_pocket.pdb
REMARK  147 active torsions:
REMARK  status: ('A' for Active; 'I' for Inactive)
REMARK    1  A    between atoms: _1  and  _3
REMARK    2  A    between atoms: _3  and  _4
REMARK    3  A    between atoms: _3  and  _6
REMARK    4  A    between atoms: _6  and  _7
REMARK    5  A    between atoms: _17  and  _19
REMARK    6  A    between atoms: _19  and  _20
REMARK    7  A    between atoms: _19  and  _22
REMARK    8  A    between atoms: _22  and  _23
REMARK    9  A    between atoms: _28  and  _29
REMARK   10  A    between atoms: _31  and  _33
REMARK   11  A    between atoms: _33  and  _34
REMARK   12  A    between atoms: _33  and  _36
REMARK   13  A    between atoms: _36  and  _37
REMARK   14  A    between atoms: _40  and  _41
REMARK   15  A    between atoms: _46  and  _48
REMARK   16  A    between atoms: _48  and  _49
REMARK   17  A    between atoms: _48  and  _51
REMARK   18  A    between atoms: _51  and  _52
REMARK   19  A    between atoms: _57  and  _59
REMARK   20  A    between atoms: _59  and  _60
REMARK   21  A    between atoms: _59  and  _62
REMARK   22  A    between atoms: _62  and  _63
REMARK   23  A    between atoms: _68  and  _70
REMARK   24  A    between atoms: _70  and  _71
REMARK   25  A    between atoms: _70  and  _73
REMARK   26  A    between atoms: _73  and  _74
REMARK   27  A    between atoms: _79  and  _81
REMARK   28  A    between atoms: _81  and  _82
REMARK   29  A    between atoms: _81  and  _84
REMARK   30  A    between atoms: _84  and  _85
REMARK   31  A    between atoms: _88  and  _90
REMARK   32  A    between atoms: _90  and  _91
REMARK   33  A    between atoms: _90  and  _93
REMARK   34  A    between atoms: _93  and  _94
REMARK   35  A    between atoms: _94  and  _95
REMARK   36  A    between atoms: _100  and  _102
REMARK   37  A    between atoms: _102  and  _103
REMARK   38  A    between atoms: _102  and  _105
REMARK   39  A    between atoms: _105  and  _106
REMARK   40  A    between atoms: _112  and  _114
REMARK   41  A    between atoms: _125  and  _128
REMARK   42  A    between atoms: _128  and  _129
REMARK   43  A    between atoms: _137  and  _138
REMARK   44  A    between atoms: _146  and  _148
REMARK   45  A    between atoms: _148  and  _149
REMARK   46  A    between atoms: _148  and  _151
REMARK   47  A    between atoms: _151  and  _152
REMARK   48  A    between atoms: _152  and  _153
REMARK   49  A    between atoms: _156  and  _158
REMARK   50  A    between atoms: _158  and  _159
REMARK   51  A    between atoms: _158  and  _161
REMARK   52  A    between atoms: _161  and  _162
REMARK   53  A    between atoms: _167  and  _169
REMARK   54  A    between atoms: _169  and  _170
REMARK   55  A    between atoms: _169  and  _172
REMARK   56  A    between atoms: _172  and  _173
REMARK   57  A    between atoms: _173  and  _174
REMARK   58  A    between atoms: _177  and  _179
REMARK   59  A    between atoms: _179  and  _180
REMARK   60  A    between atoms: _179  and  _182
REMARK   61  A    between atoms: _182  and  _183
REMARK   62  A    between atoms: _186  and  _188
REMARK   63  A    between atoms: _188  and  _189
REMARK   64  A    between atoms: _188  and  _191
REMARK   65  A    between atoms: _191  and  _192
REMARK   66  A    between atoms: _193  and  ZN_413
REMARK   67  A    between atoms: _197  and  _199
REMARK   68  A    between atoms: _199  and  _200
REMARK   69  A    between atoms: _199  and  _202
REMARK   70  A    between atoms: _202  and  _203
REMARK   71  A    between atoms: _206  and  _208
REMARK   72  A    between atoms: _208  and  _209
REMARK   73  A    between atoms: _208  and  _211
REMARK   74  A    between atoms: _214  and  _216
REMARK   75  A    between atoms: _216  and  _217
REMARK   76  A    between atoms: _216  and  _219
REMARK   77  A    between atoms: _219  and  _220
REMARK   78  A    between atoms: _225  and  _227
REMARK   79  A    between atoms: _227  and  _228
REMARK   80  A    between atoms: _227  and  _230
REMARK   81  A    between atoms: _230  and  _231
REMARK   82  A    between atoms: _237  and  _239
REMARK   83  A    between atoms: _239  and  _240
REMARK   84  A    between atoms: _239  and  _242
REMARK   85  A    between atoms: _245  and  _247
REMARK   86  A    between atoms: _247  and  _248
REMARK   87  A    between atoms: _247  and  _250
REMARK   88  A    between atoms: _250  and  _251
REMARK   89  A    between atoms: _254  and  _256
REMARK   90  A    between atoms: _256  and  _257
REMARK   91  A    between atoms: _260  and  _262
REMARK   92  A    between atoms: _262  and  _263
REMARK   93  A    between atoms: _262  and  _265
REMARK   94  A    between atoms: _268  and  _270
REMARK   95  A    between atoms: _270  and  _271
REMARK   96  A    between atoms: _270  and  _273
REMARK   97  A    between atoms: _273  and  _274
REMARK   98  A    between atoms: _277  and  _279
REMARK   99  A    between atoms: _279  and  _280
REMARK  100  A    between atoms: _282  and  _284
REMARK  101  A    between atoms: _284  and  _285
REMARK  102  A    between atoms: _287  and  _289
REMARK  103  A    between atoms: _289  and  _290
REMARK  104  A    between atoms: _289  and  _292
REMARK  105  A    between atoms: _292  and  _293
REMARK  106  A    between atoms: _295  and  _297
REMARK  107  A    between atoms: _297  and  _298
REMARK  108  A    between atoms: _297  and  _300
REMARK  109  A    between atoms: _300  and  _301
REMARK  110  A    between atoms: _304  and  _306
REMARK  111  A    between atoms: _306  and  _307
REMARK  112  A    between atoms: _306  and  _309
REMARK  113  A    between atoms: _309  and  _310
REMARK  114  A    between atoms: _313  and  _315
REMARK  115  A    between atoms: _315  and  _316
REMARK  116  A    between atoms: _315  and  _318
REMARK  117  A    between atoms: _318  and  _319
REMARK  118  A    between atoms: _323  and  _324
REMARK  119  A    between atoms: _330  and  _331
REMARK  120  A    between atoms: _336  and  _338
REMARK  121  A    between atoms: _338  and  _339
REMARK  122  A    between atoms: _338  and  _341
REMARK  123  A    between atoms: _341  and  _342
REMARK  124  A    between atoms: _345  and  _347
REMARK  125  A    between atoms: _347  and  _348
REMARK  126  A    between atoms: _347  and  _350
REMARK  127  A    between atoms: _350  and  _351
REMARK  128  A    between atoms: _354  and  _356
REMARK  129  A    between atoms: _356  and  _357
REMARK  130  A    between atoms: _356  and  _359
REMARK  131  A    between atoms: _361  and  _363
REMARK  132  A    between atoms: _363  and  _364
REMARK  133  A    between atoms: _363  and  _366
REMARK  134  A    between atoms: _369  and  _371
REMARK  135  A    between atoms: _371  and  _372
REMARK  136  A    between atoms: _371  and  _374
REMARK  137  A    between atoms: _374  and  _375
REMARK  138  A    between atoms: _385  and  _387
REMARK  139  A    between atoms: _387  and  _388
REMARK  140  A    between atoms: _387  and  _390
REMARK  141  A    between atoms: _390  and  _391
REMARK  142  A    between atoms: _396  and  _398
REMARK  143  A    between atoms: _398  and  _399
REMARK  144  A    between atoms: _398  and  _401
REMARK  145  A    between atoms: _401  and  _402
REMARK  146  A    between atoms: _402  and  _403
REMARK  147  A    between atoms: _403  and  _404
REMARK                            x       y       z     vdW  Elec       q    Type
REMARK                         _______ _______ _______ _____ _____    ______ ____
ROOT
ATOM      1  CB  HIS A   1      -0.638  -1.847   8.620  0.00  0.00    +0.072 C 
ENDROOT
BRANCH   1   2
ATOM      2  CG  HIS A   1       0.684  -1.159   8.532  0.00  0.00    +0.082 A 
ATOM      3  ND1 HIS A   1       1.877  -1.833   8.662  0.00  0.00    -0.227 NA
ATOM      4  CE1 HIS A   1       2.876  -0.973   8.561  0.00  0.00    +0.199 A 
ATOM      5  NE2 HIS A   1       2.372   0.230   8.348  0.00  0.00    -0.221 NA
ATOM      6  CD2 HIS A   1       0.998   0.141   8.341  0.00  0.00    +0.115 A 
ENDBRANCH   1   2
BRANCH   1   7
ATOM      7  CA  HIS A   1      -0.853  -2.906   7.546  0.00  0.00    +0.139 C 
BRANCH   7   8
ATOM      8  N   HIS A   1      -0.753  -2.307   6.194  0.00  0.00    -0.239 NA
ATOM      9  H   HIS A   1      -1.460  -1.598   5.913  0.00  0.00    +0.142 HD
ENDBRANCH   7   8
BRANCH   7  10
ATOM     10  C   HIS A   1      -2.222  -3.525   7.778  0.00  0.00    +0.224 C 
ATOM     11  O   HIS A   1      -2.364  -4.529   8.466  0.00  0.00    -0.287 OA
ENDBRANCH   7  10
ENDBRANCH   1   7
TORSDOF 4
REMARK  Name = ../refined-set-2016/3igp/3igp_pocket.pdb
REMARK  147 active torsions:
REMARK  status: ('A' for Active; 'I' for Inactive)
REMARK    1  A    between atoms: _1  and  _3
REMARK    2  A    between atoms: _3  and  _4
REMARK    3  A    between atoms: _3  and  _6
REMARK    4  A    between atoms: _6  and  _7
REMARK    5  A    between atoms: _17  and  _19
REMARK    6  A    between atoms: _19  and  _20
REMARK    7  A    between atoms: _19  and  _22
REMARK    8  A    between atoms: _22  and  _23
REMARK    9  A    between atoms: _28  and  _29
REMARK   10  A    between atoms: _31  and  _33
REMARK   11  A    between atoms: _33  and  _34
REMARK   12  A    between atoms: _33  and  _36
REMARK   13  A    between atoms: _36  and  _37
REMARK   14  A    between atoms: _40  and  _41
REMARK   15  A    between atoms: _46  and  _48
REMARK   16  A    between atoms: _48  and  _49
REMARK   17  A    between atoms: _48  and  _51
REMARK   18  A    between atoms: _51  and  _52
REMARK   19  A    between atoms: _57  and  _59
REMARK   20  A    between atoms: _59  and  _60
REMARK   21  A    between atoms: _59  and  _62
REMARK   22  A    between atoms: _62  and  _63
REMARK   23  A    between atoms: _68  and  _70
REMARK   24  A    between atoms: _70  and  _71
REMARK   25  A    between atoms: _70  and  _73
REMARK   26  A    between atoms: _73  and  _74
REMARK   27  A    between atoms: _79  and  _81
REMARK   28  A    between atoms: _81  and  _82
REMARK   29  A    between atoms: _81  and  _84
REMARK   30  A    between atoms: _84  and  _85
REMARK   31  A    between atoms: _88  and  _90
REMARK   32  A    between atoms: _90  and  _91
REMARK   33  A    between atoms: _90  and  _93
REMARK   34  A    between atoms: _93  and  _94
REMARK   35  A    between atoms: _94  and  _95
REMARK   36  A    between atoms: _100  and  _102
REMARK   37  A    between atoms: _102  and  _103
REMARK   38  A    between atoms: _102  and  _105
REMARK   39  A    between atoms: _105  and  _106
REMARK   40  A    between atoms: _112  and  _114
REMARK   41  A    between atoms: _125  and  _128
REMARK   42  A    between atoms: _128  and  _129
REMARK   43  A    between atoms: _137  and  _138
REMARK   44  A    between atoms: _146  and  _148
REMARK   45  A    between atoms: _148  and  _149
REMARK   46  A    between atoms: _148  and  _151
REMARK   47  A    between atoms: _151  and  _152
REMARK   48  A    between atoms: _152  and  _153
REMARK   49  A    between atoms: _156  and  _158
REMARK   50  A    between atoms: _158  and  _159
REMARK   51  A    between atoms: _158  and  _161
REMARK   52  A    between atoms: _161  and  _162
REMARK   53  A    between atoms: _167  and  _169
REMARK   54  A    between atoms: _169  and  _170
REMARK   55  A    between atoms: _169  and  _172
REMARK   56  A    between atoms: _172  and  _173
REMARK   57  A    between atoms: _173  and  _174
REMARK   58  A    between atoms: _177  and  _179
REMARK   59  A    between atoms: _179  and  _180
REMARK   60  A    between atoms: _179  and  _182
REMARK   61  A    between atoms: _182  and  _183
REMARK   62  A    between atoms: _186  and  _188
REMARK   63  A    between atoms: _188  and  _189
REMARK   64  A    between atoms: _188  and  _191
REMARK   65  A    between atoms: _191  and  _192
REMARK   66  A    between atoms: _193  and  ZN_413
REMARK   67  A    between atoms: _197  and  _199
REMARK   68  A    between atoms: _199  and  _200
REMARK   69  A    between atoms: _199  and  _202
REMARK   70  A    between atoms: _202  and  _203
REMARK   71  A    between atoms: _206  and  _208
REMARK   72  A    between atoms: _208  and  _209
REMARK   73  A    between atoms: _208  and  _211
REMARK   74  A    between atoms: _214  and  _216
REMARK   75  A    between atoms: _216  and  _217
REMARK   76  A    between atoms: _216  and  _219
REMARK   77  A    between atoms: _219  and  _220
REMARK   78  A    between atoms: _225  and  _227
REMARK   79  A    between atoms: _227  and  _228
REMARK   80  A    between atoms: _227  and  _230
REMARK   81  A    between atoms: _230  and  _231
REMARK   82  A    between atoms: _237  and  _239
REMARK   83  A    between atoms: _239  and  _240
REMARK   84  A    between atoms: _239  and  _242
REMARK   85  A    between atoms: _245  and  _247
REMARK   86  A    between atoms: _247  and  _248
REMARK   87  A    between atoms: _247  and  _250
REMARK   88  A    between atoms: _250  and  _251
REMARK   89  A    between atoms: _254  and  _256
REMARK   90  A    between atoms: _256  and  _257
REMARK   91  A    between atoms: _260  and  _262
REMARK   92  A    between atoms: _262  and  _263
REMARK   93  A    between atoms: _262  and  _265
REMARK   94  A    between atoms: _268  and  _270
REMARK   95  A    between atoms: _270  and  _271
REMARK   96  A    between atoms: _270  and  _273
REMARK   97  A    between atoms: _273  and  _274
REMARK   98  A    between atoms: _277  and  _279
REMARK   99  A    between atoms: _279  and  _280
REMARK  100  A    between atoms: _282  and  _284
REMARK  101  A    between atoms: _284  and  _285
REMARK  102  A    between atoms: _287  and  _289
REMARK  103  A    between atoms: _289  and  _290
REMARK  104  A    between atoms: _289  and  _292
REMARK  105  A    between atoms: _292  and  _293
REMARK  106  A    between atoms: _295  and  _297
REMARK  107  A    between atoms: _297  and  _298
REMARK  108  A    between atoms: _297  and  _300
REMARK  109  A    between atoms: _300  and  _301
REMARK  110  A    between atoms: _304  and  _306
REMARK  111  A    between atoms: _306  and  _307
REMARK  112  A    between atoms: _306  and  _309
REMARK  113  A    between atoms: _309  and  _310
REMARK  114  A    between atoms: _313  and  _315
REMARK  115  A    between atoms: _315  and  _316
REMARK  116  A    between atoms: _315  and  _318
REMARK  117  A    between atoms: _318  and  _319
REMARK  118  A    between atoms: _323  and  _324
REMARK  119  A    between atoms: _330  and  _331
REMARK  120  A    between atoms: _336  and  _338
REMARK  121  A    between atoms: _338  and  _339
REMARK  122  A    between atoms: _338  and  _341
REMARK  123  A    between atoms: _341  and  _342
REMARK  124  A    between atoms: _345  and  _347
REMARK  125  A    between atoms: _347  and  _348
REMARK  126  A    between atoms: _347  and  _350
REMARK  127  A    between atoms: _350  and  _351
REMARK  128  A    between atoms: _354  and  _356
REMARK  129  A    between atoms: _356  and  _357
REMARK  130  A    between atoms: _356  and  _359
REMARK  131  A    between atoms: _361  and  _363
REMARK  132  A    between atoms: _363  and  _364
REMARK  133  A    between atoms: _363  and  _366
REMARK  134  A    between atoms: _369  and  _371
REMARK  135  A    between atoms: _371  and  _372
REMARK  136  A    between atoms: _371  and  _374
REMARK  137  A    between atoms: _374  and  _375
REMARK  138  A    between atoms: _385  and  _387
REMARK  139  A    between atoms: _387  and  _388
REMARK  140  A    between atoms: _387  and  _390
REMARK  141  A    between atoms: _390  and  _391
REMARK  142  A    between atoms: _396  and  _398
REMARK  143  A    between atoms: _398  and  _399
REMARK  144  A    between atoms: _398  and  _401
REMARK  145  A    between atoms: _401  and  _402
REMARK  146  A    between atoms: _402  and  _403
REMARK  147  A    between atoms: _403  and  _404
REMARK                            x       y       z     vdW  Elec       q    Type
REMARK                         _______ _______ _______ _____ _____    ______ ____
ROOT
ATOM      1  CB  ASN A   1      -8.431   2.548   6.769  0.00  0.00    +0.110 C 
ENDROOT
BRANCH   1   2
ATOM      2  CG  ASN A   1      -7.284   2.369   7.723  0.00  0.00    +0.221 C 
ATOM      3  OD1 ASN A   1      -7.146   1.340   8.386  0.00  0.00    -0.275 OA
ATOM      4  ND2 ASN A   1      -6.423   3.392   7.791  0.00  0.00    -0.329 N 
ATOM      5 HD21 ASN A   1      -5.598   3.336   8.422  0.00  0.00    +0.145 HD
ATOM      6 HD22 ASN A   1      -6.579   4.242   7.213  0.00  0.00    +0.145 HD
ENDBRANCH   1   2
BRANCH   1   7
ATOM      7  CA  ASN A   1      -9.239   1.256   6.516  0.00  0.00    +0.142 C 
BRANCH   7   8
ATOM      8  N   ASN A   1      -8.479   0.281   5.743  0.00  0.00    -0.239 NA
ATOM      9  H   ASN A   1      -8.012   0.592   4.867  0.00  0.00    +0.142 HD
ENDBRANCH   7   8
BRANCH   7  10
ATOM     10  C   ASN A   1     -10.459   1.672   5.704  0.00  0.00    +0.225 C 
ATOM     11  O   ASN A   1     -10.323   2.098   4.552  0.00  0.00    -0.287 OA
ENDBRANCH   7  10
ENDBRANCH   1   7
TORSDOF 4
REMARK  Name = ../refined-set-2016/3igp/3igp_pocket.pdb
REMARK  147 active torsions:
REMARK  status: ('A' for Active; 'I' for Inactive)
REMARK    1  A    between atoms: _1  and  _3
REMARK    2  A    between atoms: _3  and  _4
REMARK    3  A    between atoms: _3  and  _6
REMARK    4  A    between atoms: _6  and  _7
REMARK    5  A    between atoms: _17  and  _19
REMARK    6  A    between atoms: _19  and  _20
REMARK    7  A    between atoms: _19  and  _22
REMARK    8  A    between atoms: _22  and  _23
REMARK    9  A    between atoms: _28  and  _29
REMARK   10  A    between atoms: _31  and  _33
REMARK   11  A    between atoms: _33  and  _34
REMARK   12  A    between atoms: _33  and  _36
REMARK   13  A    between atoms: _36  and  _37
REMARK   14  A    between atoms: _40  and  _41
REMARK   15  A    between atoms: _46  and  _48
REMARK   16  A    between atoms: _48  and  _49
REMARK   17  A    between atoms: _48  and  _51
REMARK   18  A    between atoms: _51  and  _52
REMARK   19  A    between atoms: _57  and  _59
REMARK   20  A    between atoms: _59  and  _60
REMARK   21  A    between atoms: _59  and  _62
REMARK   22  A    between atoms: _62  and  _63
REMARK   23  A    between atoms: _68  and  _70
REMARK   24  A    between atoms: _70  and  _71
REMARK   25  A    between atoms: _70  and  _73
REMARK   26  A    between atoms: _73  and  _74
REMARK   27  A    between atoms: _79  and  _81
REMARK   28  A    between atoms: _81  and  _82
REMARK   29  A    between atoms: _81  and  _84
REMARK   30  A    between atoms: _84  and  _85
REMARK   31  A    between atoms: _88  and  _90
REMARK   32  A    between atoms: _90  and  _91
REMARK   33  A    between atoms: _90  and  _93
REMARK   34  A    between atoms: _93  and  _94
REMARK   35  A    between atoms: _94  and  _95
REMARK   36  A    between atoms: _100  and  _102
REMARK   37  A    between atoms: _102  and  _103
REMARK   38  A    between atoms: _102  and  _105
REMARK   39  A    between atoms: _105  and  _106
REMARK   40  A    between atoms: _112  and  _114
REMARK   41  A    between atoms: _125  and  _128
REMARK   42  A    between atoms: _128  and  _129
REMARK   43  A    between atoms: _137  and  _138
REMARK   44  A    between atoms: _146  and  _148
REMARK   45  A    between atoms: _148  and  _149
REMARK   46  A    between atoms: _148  and  _151
REMARK   47  A    between atoms: _151  and  _152
REMARK   48  A    between atoms: _152  and  _153
REMARK   49  A    between atoms: _156  and  _158
REMARK   50  A    between atoms: _158  and  _159
REMARK   51  A    between atoms: _158  and  _161
REMARK   52  A    between atoms: _161  and  _162
REMARK   53  A    between atoms: _167  and  _169
REMARK   54  A    between atoms: _169  and  _170
REMARK   55  A    between atoms: _169  and  _172
REMARK   56  A    between atoms: _172  and  _173
REMARK   57  A    between atoms: _173  and  _174
REMARK   58  A    between atoms: _177  and  _179
REMARK   59  A    between atoms: _179  and  _180
REMARK   60  A    between atoms: _179  and  _182
REMARK   61  A    between atoms: _182  and  _183
REMARK   62  A    between atoms: _186  and  _188
REMARK   63  A    between atoms: _188  and  _189
REMARK   64  A    between atoms: _188  and  _191
REMARK   65  A    between atoms: _191  and  _192
REMARK   66  A    between atoms: _193  and  ZN_413
REMARK   67  A    between atoms: _197  and  _199
REMARK   68  A    between atoms: _199  and  _200
REMARK   69  A    between atoms: _199  and  _202
REMARK   70  A    between atoms: _202  and  _203
REMARK   71  A    between atoms: _206  and  _208
REMARK   72  A    between atoms: _208  and  _209
REMARK   73  A    between atoms: _208  and  _211
REMARK   74  A    between atoms: _214  and  _216
REMARK   75  A    between atoms: _216  and  _217
REMARK   76  A    between atoms: _216  and  _219
REMARK   77  A    between atoms: _219  and  _220
REMARK   78  A    between atoms: _225  and  _227
REMARK   79  A    between atoms: _227  and  _228
REMARK   80  A    between atoms: _227  and  _230
REMARK   81  A    between atoms: _230  and  _231
REMARK   82  A    between atoms: _237  and  _239
REMARK   83  A    between atoms: _239  and  _240
REMARK   84  A    between atoms: _239  and  _242
REMARK   85  A    between atoms: _245  and  _247
REMARK   86  A    between atoms: _247  and  _248
REMARK   87  A    between atoms: _247  and  _250
REMARK   88  A    between atoms: _250  and  _251
REMARK   89  A    between atoms: _254  and  _256
REMARK   90  A    between atoms: _256  and  _257
REMARK   91  A    between atoms: _260  and  _262
REMARK   92  A    between atoms: _262  and  _263
REMARK   93  A    between atoms: _262  and  _265
REMARK   94  A    between atoms: _268  and  _270
REMARK   95  A    between atoms: _270  and  _271
REMARK   96  A    between atoms: _270  and  _273
REMARK   97  A    between atoms: _273  and  _274
REMARK   98  A    between atoms: _277  and  _279
REMARK   99  A    between atoms: _279  and  _280
REMARK  100  A    between atoms: _282  and  _284
REMARK  101  A    between atoms: _284  and  _285
REMARK  102  A    between atoms: _287  and  _289
REMARK  103  A    between atoms: _289  and  _290
REMARK  104  A    between atoms: _289  and  _292
REMARK  105  A    between atoms: _292  and  _293
REMARK  106  A    between atoms: _295  and  _297
REMARK  107  A    between atoms: _297  and  _298
REMARK  108  A    between atoms: _297  and  _300
REMARK  109  A    between atoms: _300  and  _301
REMARK  110  A    between atoms: _304  and  _306
REMARK  111  A    between atoms: _306  and  _307
REMARK  112  A    between atoms: _306  and  _309
REMARK  113  A    between atoms: _309  and  _310
REMARK  114  A    between atoms: _313  and  _315
REMARK  115  A    between atoms: _315  and  _316
REMARK  116  A    between atoms: _315  and  _318
REMARK  117  A    between atoms: _318  and  _319
REMARK  118  A    between atoms: _323  and  _324
REMARK  119  A    between atoms: _330  and  _331
REMARK  120  A    between atoms: _336  and  _338
REMARK  121  A    between atoms: _338  and  _339
REMARK  122  A    between atoms: _338  and  _341
REMARK  123  A    between atoms: _341  and  _342
REMARK  124  A    between atoms: _345  and  _347
REMARK  125  A    between atoms: _347  and  _348
REMARK  126  A    between atoms: _347  and  _350
REMARK  127  A    between atoms: _350  and  _351
REMARK  128  A    between atoms: _354  and  _356
REMARK  129  A    between atoms: _356  and  _357
REMARK  130  A    between atoms: _356  and  _359
REMARK  131  A    between atoms: _361  and  _363
REMARK  132  A    between atoms: _363  and  _364
REMARK  133  A    between atoms: _363  and  _366
REMARK  134  A    between atoms: _369  and  _371
REMARK  135  A    between atoms: _371  and  _372
REMARK  136  A    between atoms: _371  and  _374
REMARK  137  A    between atoms: _374  and  _375
REMARK  138  A    between atoms: _385  and  _387
REMARK  139  A    between atoms: _387  and  _388
REMARK  140  A    between atoms: _387  and  _390
REMARK  141  A    between atoms: _390  and  _391
REMARK  142  A    between atoms: _396  and  _398
REMARK  143  A    between atoms: _398  and  _399
REMARK  144  A    between atoms: _398  and  _401
REMARK  145  A    between atoms: _401  and  _402
REMARK  146  A    between atoms: _402  and  _403
REMARK  147  A    between atoms: _403  and  _404
REMARK                            x       y       z     vdW  Elec       q    Type
REMARK                         _______ _______ _______ _____ _____    ______ ____
ROOT
ATOM      1  C   UNK A   4     -10.327  -1.502  10.260  0.00  0.00    +0.000 C 
ATOM      2  C   UNK A   4     -10.367  -2.763  11.105  0.00  0.00    +0.000 C 
ATOM      3  O   UNK A   4     -11.007  -2.790  12.167  0.00  0.00    +0.000 OA
ATOM      4  N   VAL A   5      -9.662  -3.784  10.632  0.00  0.00    +0.000 N 
ATOM      5  CA  VAL A   5      -9.591  -5.062  11.323  0.00  0.00    +0.000 C 
ATOM      6  C   VAL A   5      -8.138  -5.484  11.532  0.00  0.00    +0.000 C 
ATOM      7  N   UNK A   6      -7.993  -6.448  12.437  0.00  0.00    +0.000 N 
ATOM      8  H   UNK A   6      -8.793  -6.627  13.076  0.00  0.00    +0.000 HD
ATOM      9  C   UNK A   6      -6.810  -7.270  12.605  0.00  0.00    +0.000 C 
ATOM     10  C   UNK A   6      -6.158  -7.013  13.955  0.00  0.00    +0.000 C 
ATOM     11  C   UNK A   6      -5.868  -5.567  14.215  0.00  0.00    +0.000 A 
ATOM     12  C   UNK A   6      -6.688  -4.558  14.595  0.00  0.00    +0.000 A 
ATOM     13  N   UNK A   6      -5.932  -3.419  14.671  0.00  0.00    +0.000 N 
ATOM     14 ZN   UNK A   6      -6.698  -1.617  15.284  0.00  0.00    +0.000 Zn
ATOM     15  N   UNK A   4      -7.500  -0.744  13.599  0.00  0.00    +0.000 N 
ATOM     16  C   UNK A   4      -7.910   0.488  13.383  0.00  0.00    +0.000 A 
ATOM     17  N   UNK A   4      -8.443   0.550  12.171  0.00  0.00    +0.000 NA
ATOM     18  C   UNK A   4      -8.359  -0.687  11.581  0.00  0.00    +0.000 A 
ATOM     19  C   UNK A   4      -7.777  -1.501  12.491  0.00  0.00    +0.000 A 
ATOM     20  C   UNK A   6      -4.685  -3.713  14.344  0.00  0.00    +0.000 A 
ATOM     21  N   UNK A   6      -4.621  -5.005  14.040  0.00  0.00    +0.000 NA
ATOM     22  O   VAL A   5      -7.227  -5.026  10.831  0.00  0.00    +0.000 OA
ATOM     23  H   VAL A   5      -9.144  -3.666   9.738  0.00  0.00    +0.000 HD
ATOM     24  C   UNK A   4      -8.915  -0.969  10.219  0.00  0.00    +0.000 C 
ENDROOT
BRANCH  14  25
ATOM     25  N   UNK A   6      -8.163  -2.384  16.522  0.00  0.00    +0.000 N 
ATOM     26  C   UNK A   6      -7.844  -3.304  17.408  0.00  0.00    +0.000 A 
ATOM     27  N   UNK A   6      -8.943  -3.689  18.029  0.00  0.00    +0.000 NA
ATOM     28  C   UNK A   6     -10.005  -2.991  17.519  0.00  0.00    +0.000 A 
ATOM     29  C   UNK A   6      -9.519  -2.167  16.563  0.00  0.00    +0.000 A 
BRANCH  29  30
ATOM     30  C   UNK A   6     -10.215  -1.185  15.689  0.00  0.00    +0.000 C 
BRANCH  30  31
ATOM     31  C   UNK A   6     -11.706  -1.480  15.543  0.00  0.00    +0.000 C 
BRANCH  31  32
ATOM     32  C   UNK A   6     -12.412  -0.328  14.894  0.00  0.00    +0.000 C 
ATOM     33  N   UNK A   4     -13.438   0.186  15.581  0.00  0.00    +0.000 N 
ATOM     34  H   UNK A   4     -13.753  -0.291  16.450  0.00  0.00    +0.000 HD
ATOM     35  O   UNK A   6     -12.048   0.083  13.795  0.00  0.00    +0.000 OA
BRANCH  33  36
ATOM     36  C   UNK A   4     -14.134   1.408  15.142  0.00  0.00    +0.000 C 
BRANCH  36  37
ATOM     37  C   UNK A   4     -13.522   2.585  15.912  0.00  0.00    +0.000 C 
ATOM     38  O   UNK A   4     -13.649   2.669  17.138  0.00  0.00    +0.000 OA
ATOM     39  N   VAL A   5     -12.854   3.465  15.184  0.00  0.00    +0.000 N 
ATOM     40  H   VAL A   5     -12.957   3.444  14.149  0.00  0.00    +0.000 HD
BRANCH  39  41
ATOM     41  CA  VAL A   5     -11.970   4.472  15.791  0.00  0.00    +0.000 C 
BRANCH  41  42
ATOM     42  C   VAL A   5     -12.682   5.794  15.848  0.00  0.00    +0.000 C 
ATOM     43  N   UNK A   6     -12.693   6.400  17.039  0.00  0.00    +0.000 N 
ATOM     44  H   UNK A   6     -12.210   5.953  17.845  0.00  0.00    +0.000 HD
ATOM     45  O   VAL A   5     -13.192   6.260  14.821  0.00  0.00    +0.000 OA
BRANCH  43  46
ATOM     46  C   UNK A   6     -13.378   7.692  17.230  0.00  0.00    +0.000 C 
BRANCH  46  47
ATOM     47  C   UNK A   6     -12.461   8.665  17.963  0.00  0.00    +0.000 C 
ATOM     48  O   UNK A   6     -11.678   8.245  18.829  0.00  0.00    +0.000 OA
ENDBRANCH  46  47
BRANCH  46  49
ATOM     49  C   UNK A   6     -14.652   7.556  18.061  0.00  0.00    +0.000 C 
BRANCH  49  50
ATOM     50  C   UNK A   6     -15.539   6.414  17.681  0.00  0.00    +0.000 A 
ATOM     51  N   UNK A   6     -15.208   5.094  17.932  0.00  0.00    +0.000 NA
ATOM     52  C   UNK A   6     -16.209   4.317  17.547  0.00  0.00    +0.000 A 
ATOM     53  N   UNK A   6     -17.173   5.078  17.057  0.00  0.00    +0.000 NA
ATOM     54  C   UNK A   6     -16.789   6.395  17.159  0.00  0.00    +0.000 A 
ENDBRANCH  49  50
ENDBRANCH  46  49
ENDBRANCH  43  46
ENDBRANCH  41  42
BRANCH  41  55
ATOM     55  CB  VAL A   5     -10.710   4.626  14.967  0.00  0.00    +0.000 C 
ATOM     56  CG2 VAL A   5      -9.763   5.648  15.579  0.00  0.00    +0.000 C 
ATOM     57  CG1 VAL A   5     -10.037   3.267  14.822  0.00  0.00    +0.000 C 
ENDBRANCH  41  55
ENDBRANCH  39  41
ENDBRANCH  36  37
BRANCH  36  58
ATOM     58  C   UNK A   4     -15.631   1.326  15.363  0.00  0.00    +0.000 C 
BRANCH  58  59
ATOM     59  C   UNK A   4     -16.364   0.312  14.472  0.00  0.00    +0.000 C 
ATOM     60  C   UNK A   4     -17.369  -0.569  15.241  0.00  0.00    +0.000 C 
ATOM     61  C   UNK A   4     -17.059   1.049  13.338  0.00  0.00    +0.000 C 
ENDBRANCH  58  59
ENDBRANCH  36  58
ENDBRANCH  33  36
ENDBRANCH  31  32
BRANCH  31  62
ATOM     62  N   UNK A   6     -11.920  -2.707  14.790  0.00  0.00    +0.000 N 
ATOM     63  C   LEU A   2     -12.542  -3.770  15.306  0.00  0.00    +0.000 C 
ATOM     64  O   LEU A   2     -12.949  -3.819  16.483  0.00  0.00    +0.000 OA
ATOM     65  H   UNK A   6     -11.574  -2.758  13.810  0.00  0.00    +0.000 HD
BRANCH  63  66
ATOM     66  CA  LEU A   2     -12.775  -4.935  14.362  0.00  0.00    +0.000 C 
BRANCH  66  67
ATOM     67  N   LEU A   2     -12.419  -6.205  14.994  0.00  0.00    +0.000 N 
ATOM     68  H   LEU A   2     -13.147  -6.708  15.541  0.00  0.00    +0.000 HD
ATOM     69  C   GLU A   1     -11.223  -6.739  14.903  0.00  0.00    +0.000 C 
ATOM     70  O   GLU A   1     -10.341  -6.293  14.205  0.00  0.00    +0.000 OA
BRANCH  69  71
ATOM     71  CA  GLU A   1     -11.024  -8.007  15.713  0.00  0.00    +0.000 C 
BRANCH  71  72
ATOM     72  N   GLU A   1     -10.549  -9.060  14.834  0.00  0.00    +0.000 NA
ATOM     73  H   GLU A   1      -9.958  -8.804  14.017  0.00  0.00    +0.000 HD
ENDBRANCH  71  72
BRANCH  71  74
ATOM     74  CB  GLU A   1     -10.035  -7.765  16.839  0.00  0.00    +0.000 C 
BRANCH  74  75
ATOM     75  CG  GLU A   1     -10.556  -6.841  17.956  0.00  0.00    +0.000 C 
BRANCH  75  76
ATOM     76  CD  GLU A   1      -9.595  -6.707  19.081  0.00  0.00    +0.000 C 
ATOM     77  OE2 GLU A   1      -9.529  -5.611  19.690  0.00  0.00    +0.000 OA
ATOM     78  OE1 GLU A   1      -8.956  -7.704  19.426  0.00  0.00    +0.000 OA
ENDBRANCH  75  76
ENDBRANCH  74  75
ENDBRANCH  71  74
ENDBRANCH  69  71
ENDBRANCH  66  67
BRANCH  66  79
ATOM     79  CB  LEU A   2     -14.270  -4.972  13.999  0.00  0.00    +0.000 C 
BRANCH  79  80
ATOM     80  CG  LEU A   2     -15.075  -3.733  13.599  0.00  0.00    +0.000 C 
ATOM     81  CD2 LEU A   2     -16.534  -4.189  13.378  0.00  0.00    +0.000 C 
ATOM     82  CD1 LEU A   2     -14.465  -3.092  12.337  0.00  0.00    +0.000 C 
ENDBRANCH  79  80
ENDBRANCH  66  79
ENDBRANCH  63  66
ENDBRANCH  31  62
ENDBRANCH  30  31
ENDBRANCH  29  30
ENDBRANCH  14  25
BRANCH   1  84
ATOM     83  C   UNK A   3     -11.738   0.475  10.201  0.00  0.00    +0.000 C 
ATOM     84  N   UNK A   4     -11.185  -0.518  10.887  0.00  0.00    +0.000 N 
ATOM     85  H   UNK A   4     -11.374  -0.592  11.907  0.00  0.00    +0.000 HD
ATOM     86  O   UNK A   3     -11.504   0.714   9.012  0.00  0.00    +0.000 OA
BRANCH  83  87
ATOM     87  C   UNK A   3     -12.719   1.321  10.998  0.00  0.00    +0.000 C 
BRANCH  87  90
ATOM     88  C   LEU A   2     -12.722   3.729  11.099  0.00  0.00    +0.000 C 
ATOM     89  O   LEU A   2     -12.832   3.746  12.329  0.00  0.00    +0.000 OA
ATOM     90  N   UNK A   3     -12.841   2.620  10.364  0.00  0.00    +0.000 N 
ATOM     91  H   UNK A   3     -13.020   2.688   9.342  0.00  0.00    +0.000 HD
BRANCH  88  92
ATOM     92  CA  LEU A   2     -12.487   5.009  10.350  0.00  0.00    +0.000 C 
BRANCH  92  94
ATOM     93  C   GLU A   1     -12.883   7.386  10.686  0.00  0.00    +0.000 C 
ATOM     94  N   LEU A   2     -12.828   6.147  11.189  0.00  0.00    +0.000 N 
ATOM     95  H   LEU A   2     -13.033   5.995  12.197  0.00  0.00    +0.000 HD
ATOM     96  O   GLU A   1     -12.674   7.619   9.500  0.00  0.00    +0.000 OA
BRANCH  93  97
ATOM     97  CA  GLU A   1     -13.175   8.544  11.645  0.00  0.00    +0.000 C 
BRANCH  97  98
ATOM     98  CB  GLU A   1     -11.837   9.160  12.185  0.00  0.00    +0.000 C 
ATOM     99  CG2 GLU A   1     -11.129   8.244  13.193  0.00  0.00    +0.000 C 
BRANCH  98 100
ATOM    100  CG1 GLU A   1     -10.889   9.474  11.037  0.00  0.00    +0.000 C 
ATOM    101  CD1 GLU A   1      -9.704  10.353  11.461  0.00  0.00    +0.000 C 
ENDBRANCH  98 100
ENDBRANCH  97  98
BRANCH  97 102
ATOM    102  N   GLU A   1     -14.075   8.201  12.751  0.00  0.00    +0.000 NA
ATOM    103  H   GLU A   1     -13.725   7.568  13.498  0.00  0.00    +0.000 HD
ENDBRANCH  97 102
ENDBRANCH  93  97
ENDBRANCH  92  94
BRANCH  92 104
ATOM    104  CB  LEU A   2     -11.023   5.069   9.897  0.00  0.00    +0.000 C 
BRANCH 104 105
ATOM    105  CG  LEU A   2      -9.996   5.080  11.001  0.00  0.00    +0.000 C 
BRANCH 105 106
ATOM    106  CD  LEU A   2      -9.136   3.844  10.986  0.00  0.00    +0.000 C 
ATOM    107  OE1 LEU A   2      -9.630   2.748  11.148  0.00  0.00    +0.000 OA
ATOM    108  NE2 LEU A   2      -7.847   4.022  10.780  0.00  0.00    +0.000 N 
ATOM    109 HE21 LEU A   2      -7.207   3.203  10.751  0.00  0.00    +0.000 HD
ATOM    110 HE22 LEU A   2      -7.469   4.982  10.646  0.00  0.00    +0.000 HD
ENDBRANCH 105 106
ENDBRANCH 104 105
ENDBRANCH  92 104
ENDBRANCH  88  92
ENDBRANCH  87  90
BRANCH  87 111
ATOM    111  C   UNK A   3     -14.064   0.598  11.244  0.00  0.00    +0.000 C 
BRANCH 111 112
ATOM    112  C   UNK A   3     -14.774   0.125  10.012  0.00  0.00    +0.000 A 
ATOM    113  C   UNK A   3     -15.904   0.794   9.534  0.00  0.00    +0.000 A 
ATOM    114  C   UNK A   3     -16.581   0.325   8.432  0.00  0.00    +0.000 A 
ATOM    115  C   UNK A   3     -16.127  -0.811   7.775  0.00  0.00    +0.000 A 
ATOM    116  C   UNK A   3     -14.989  -1.464   8.219  0.00  0.00    +0.000 A 
ATOM    117  C   UNK A   3     -14.341  -1.020   9.342  0.00  0.00    +0.000 A 
ENDBRANCH 111 112
ENDBRANCH  87 111
ENDBRANCH  83  87
ENDBRANCH   1  84
BRANCH   9 118
ATOM    118  C   UNK A   6      -7.244  -8.721  12.493  0.00  0.00    +0.000 C 
ATOM    119  O   UNK A   6      -8.305  -9.101  13.002  0.00  0.00    +0.000 OA
ENDBRANCH   9 118
BRANCH   5 120
ATOM    120  CB  VAL A   5     -10.281  -6.171  10.508  0.00  0.00    +0.000 C 
BRANCH 120 121
ATOM    121  CG  VAL A   5     -11.731  -5.912  10.196  0.00  0.00    +0.000 A 
ATOM    122  CD2 VAL A   5     -12.735  -6.582  10.887  0.00  0.00    +0.000 A 
ATOM    123  CE2 VAL A   5     -14.052  -6.380  10.582  0.00  0.00    +0.000 A 
ATOM    124  CZ  VAL A   5     -14.410  -5.503   9.562  0.00  0.00    +0.000 A 
ATOM    125  CE1 VAL A   5     -13.445  -4.835   8.866  0.00  0.00    +0.000 A 
ATOM    126  CD1 VAL A   5     -12.095  -5.064   9.174  0.00  0.00    +0.000 A 
ENDBRANCH 120 121
ENDBRANCH   5 120
TORSDOF 42
REMARK  Name = ../refined-set-2016/3igp/3igp_pocket.pdb
REMARK  147 active torsions:
REMARK  status: ('A' for Active; 'I' for Inactive)
REMARK    1  A    between atoms: _1  and  _3
REMARK    2  A    between atoms: _3  and  _4
REMARK    3  A    between atoms: _3  and  _6
REMARK    4  A    between atoms: _6  and  _7
REMARK    5  A    between atoms: _17  and  _19
REMARK    6  A    between atoms: _19  and  _20
REMARK    7  A    between atoms: _19  and  _22
REMARK    8  A    between atoms: _22  and  _23
REMARK    9  A    between atoms: _28  and  _29
REMARK   10  A    between atoms: _31  and  _33
REMARK   11  A    between atoms: _33  and  _34
REMARK   12  A    between atoms: _33  and  _36
REMARK   13  A    between atoms: _36  and  _37
REMARK   14  A    between atoms: _40  and  _41
REMARK   15  A    between atoms: _46  and  _48
REMARK   16  A    between atoms: _48  and  _49
REMARK   17  A    between atoms: _48  and  _51
REMARK   18  A    between atoms: _51  and  _52
REMARK   19  A    between atoms: _57  and  _59
REMARK   20  A    between atoms: _59  and  _60
REMARK   21  A    between atoms: _59  and  _62
REMARK   22  A    between atoms: _62  and  _63
REMARK   23  A    between atoms: _68  and  _70
REMARK   24  A    between atoms: _70  and  _71
REMARK   25  A    between atoms: _70  and  _73
REMARK   26  A    between atoms: _73  and  _74
REMARK   27  A    between atoms: _79  and  _81
REMARK   28  A    between atoms: _81  and  _82
REMARK   29  A    between atoms: _81  and  _84
REMARK   30  A    between atoms: _84  and  _85
REMARK   31  A    between atoms: _88  and  _90
REMARK   32  A    between atoms: _90  and  _91
REMARK   33  A    between atoms: _90  and  _93
REMARK   34  A    between atoms: _93  and  _94
REMARK   35  A    between atoms: _94  and  _95
REMARK   36  A    between atoms: _100  and  _102
REMARK   37  A    between atoms: _102  and  _103
REMARK   38  A    between atoms: _102  and  _105
REMARK   39  A    between atoms: _105  and  _106
REMARK   40  A    between atoms: _112  and  _114
REMARK   41  A    between atoms: _125  and  _128
REMARK   42  A    between atoms: _128  and  _129
REMARK   43  A    between atoms: _137  and  _138
REMARK   44  A    between atoms: _146  and  _148
REMARK   45  A    between atoms: _148  and  _149
REMARK   46  A    between atoms: _148  and  _151
REMARK   47  A    between atoms: _151  and  _152
REMARK   48  A    between atoms: _152  and  _153
REMARK   49  A    between atoms: _156  and  _158
REMARK   50  A    between atoms: _158  and  _159
REMARK   51  A    between atoms: _158  and  _161
REMARK   52  A    between atoms: _161  and  _162
REMARK   53  A    between atoms: _167  and  _169
REMARK   54  A    between atoms: _169  and  _170
REMARK   55  A    between atoms: _169  and  _172
REMARK   56  A    between atoms: _172  and  _173
REMARK   57  A    between atoms: _173  and  _174
REMARK   58  A    between atoms: _177  and  _179
REMARK   59  A    between atoms: _179  and  _180
REMARK   60  A    between atoms: _179  and  _182
REMARK   61  A    between atoms: _182  and  _183
REMARK   62  A    between atoms: _186  and  _188
REMARK   63  A    between atoms: _188  and  _189
REMARK   64  A    between atoms: _188  and  _191
REMARK   65  A    between atoms: _191  and  _192
REMARK   66  A    between atoms: _193  and  ZN_413
REMARK   67  A    between atoms: _197  and  _199
REMARK   68  A    between atoms: _199  and  _200
REMARK   69  A    between atoms: _199  and  _202
REMARK   70  A    between atoms: _202  and  _203
REMARK   71  A    between atoms: _206  and  _208
REMARK   72  A    between atoms: _208  and  _209
REMARK   73  A    between atoms: _208  and  _211
REMARK   74  A    between atoms: _214  and  _216
REMARK   75  A    between atoms: _216  and  _217
REMARK   76  A    between atoms: _216  and  _219
REMARK   77  A    between atoms: _219  and  _220
REMARK   78  A    between atoms: _225  and  _227
REMARK   79  A    between atoms: _227  and  _228
REMARK   80  A    between atoms: _227  and  _230
REMARK   81  A    between atoms: _230  and  _231
REMARK   82  A    between atoms: _237  and  _239
REMARK   83  A    between atoms: _239  and  _240
REMARK   84  A    between atoms: _239  and  _242
REMARK   85  A    between atoms: _245  and  _247
REMARK   86  A    between atoms: _247  and  _248
REMARK   87  A    between atoms: _247  and  _250
REMARK   88  A    between atoms: _250  and  _251
REMARK   89  A    between atoms: _254  and  _256
REMARK   90  A    between atoms: _256  and  _257
REMARK   91  A    between atoms: _260  and  _262
REMARK   92  A    between atoms: _262  and  _263
REMARK   93  A    between atoms: _262  and  _265
REMARK   94  A    between atoms: _268  and  _270
REMARK   95  A    between atoms: _270  and  _271
REMARK   96  A    between atoms: _270  and  _273
REMARK   97  A    between atoms: _273  and  _274
REMARK   98  A    between atoms: _277  and  _279
REMARK   99  A    between atoms: _279  and  _280
REMARK  100  A    between atoms: _282  and  _284
REMARK  101  A    between atoms: _284  and  _285
REMARK  102  A    between atoms: _287  and  _289
REMARK  103  A    between atoms: _289  and  _290
REMARK  104  A    between atoms: _289  and  _292
REMARK  105  A    between atoms: _292  and  _293
REMARK  106  A    between atoms: _295  and  _297
REMARK  107  A    between atoms: _297  and  _298
REMARK  108  A    between atoms: _297  and  _300
REMARK  109  A    between atoms: _300  and  _301
REMARK  110  A    between atoms: _304  and  _306
REMARK  111  A    between atoms: _306  and  _307
REMARK  112  A    between atoms: _306  and  _309
REMARK  113  A    between atoms: _309  and  _310
REMARK  114  A    between atoms: _313  and  _315
REMARK  115  A    between atoms: _315  and  _316
REMARK  116  A    between atoms: _315  and  _318
REMARK  117  A    between atoms: _318  and  _319
REMARK  118  A    between atoms: _323  and  _324
REMARK  119  A    between atoms: _330  and  _331
REMARK  120  A    between atoms: _336  and  _338
REMARK  121  A    between atoms: _338  and  _339
REMARK  122  A    between atoms: _338  and  _341
REMARK  123  A    between atoms: _341  and  _342
REMARK  124  A    between atoms: _345  and  _347
REMARK  125  A    between atoms: _347  and  _348
REMARK  126  A    between atoms: _347  and  _350
REMARK  127  A    between atoms: _350  and  _351
REMARK  128  A    between atoms: _354  and  _356
REMARK  129  A    between atoms: _356  and  _357
REMARK  130  A    between atoms: _356  and  _359
REMARK  131  A    between atoms: _361  and  _363
REMARK  132  A    between atoms: _363  and  _364
REMARK  133  A    between atoms: _363  and  _366
REMARK  134  A    between atoms: _369  and  _371
REMARK  135  A    between atoms: _371  and  _372
REMARK  136  A    between atoms: _371  and  _374
REMARK  137  A    between atoms: _374  and  _375
REMARK  138  A    between atoms: _385  and  _387
REMARK  139  A    between atoms: _387  and  _388
REMARK  140  A    between atoms: _387  and  _390
REMARK  141  A    between atoms: _390  and  _391
REMARK  142  A    between atoms: _396  and  _398
REMARK  143  A    between atoms: _398  and  _399
REMARK  144  A    between atoms: _398  and  _401
REMARK  145  A    between atoms: _401  and  _402
REMARK  146  A    between atoms: _402  and  _403
REMARK  147  A    between atoms: _403  and  _404
REMARK                            x       y       z     vdW  Elec       q    Type
REMARK                         _______ _______ _______ _____ _____    ______ ____
ROOT
ATOM      1  C   GLU A   1      -5.821  -8.468  21.033  0.00  0.00    +0.238 C 
ATOM      2  O   GLU A   1      -5.064  -9.034  21.782  0.00  0.00    -0.274 OA
ATOM      3  N   HIS A   2      -7.003  -8.041  21.437  0.00  0.00    -0.298 N 
ATOM      4  H   HIS A   2      -7.598  -7.469  20.804  0.00  0.00    +0.150 HD
ENDROOT
BRANCH   1   5
ATOM      5  CA  GLU A   1      -5.489  -8.290  19.558  0.00  0.00    +0.145 C 
BRANCH   5   6
ATOM      6  N   GLU A   1      -6.493  -8.992  18.770  0.00  0.00    -0.238 NA
ATOM      7  H   GLU A   1      -7.359  -8.476  18.514  0.00  0.00    +0.142 HD
ENDBRANCH   5   6
BRANCH   5   8
ATOM      8  CB  GLU A   1      -5.457  -6.803  19.151  0.00  0.00    +0.038 C 
BRANCH   8   9
ATOM      9  CG  GLU A   1      -5.004  -6.644  17.709  0.00  0.00    +0.116 C 
BRANCH   9  10
ATOM     10  CD  GLU A   1      -4.322  -5.347  17.438  0.00  0.00    +0.365 C 
ATOM     11  OE2 GLU A   1      -4.950  -4.297  17.662  0.00  0.00    -0.246 OA
ATOM     12  OE1 GLU A   1      -3.159  -5.384  16.977  0.00  0.00    -0.246 OA
ENDBRANCH   9  10
ENDBRANCH   8   9
ENDBRANCH   5   8
ENDBRANCH   1   5
BRANCH   3  13
ATOM     13  CA  HIS A   2      -7.465  -8.373  22.765  0.00  0.00    +0.143 C 
BRANCH  13  14
ATOM     14  C   HIS A   2      -7.752  -9.849  22.814  0.00  0.00    +0.227 C 
ATOM     15  O   HIS A   2      -8.073 -10.455  21.808  0.00  0.00    -0.286 OA
ENDBRANCH  13  14
BRANCH  13  16
ATOM     16  CB  HIS A   2      -8.697  -7.568  23.100  0.00  0.00    +0.075 C 
BRANCH  16  17
ATOM     17  CG  HIS A   2      -8.388  -6.129  23.283  0.00  0.00    +0.082 A 
ATOM     18  CD2 HIS A   2      -7.933  -5.444  24.358  0.00  0.00    +0.115 A 
ATOM     19  NE2 HIS A   2      -7.742  -4.145  23.961  0.00  0.00    -0.221 NA
ATOM     20  CE1 HIS A   2      -8.037  -4.042  22.681  0.00  0.00    +0.199 A 
ATOM     21  ND1 HIS A   2      -8.425  -5.228  22.243  0.00  0.00    -0.227 NA
ENDBRANCH  16  17
ENDBRANCH  13  16
ENDBRANCH   3  13
TORSDOF 9
REMARK  Name = ../refined-set-2016/3igp/3igp_pocket.pdb
REMARK  147 active torsions:
REMARK  status: ('A' for Active; 'I' for Inactive)
REMARK    1  A    between atoms: _1  and  _3
REMARK    2  A    between atoms: _3  and  _4
REMARK    3  A    between atoms: _3  and  _6
REMARK    4  A    between atoms: _6  and  _7
REMARK    5  A    between atoms: _17  and  _19
REMARK    6  A    between atoms: _19  and  _20
REMARK    7  A    between atoms: _19  and  _22
REMARK    8  A    between atoms: _22  and  _23
REMARK    9  A    between atoms: _28  and  _29
REMARK   10  A    between atoms: _31  and  _33
REMARK   11  A    between atoms: _33  and  _34
REMARK   12  A    between atoms: _33  and  _36
REMARK   13  A    between atoms: _36  and  _37
REMARK   14  A    between atoms: _40  and  _41
REMARK   15  A    between atoms: _46  and  _48
REMARK   16  A    between atoms: _48  and  _49
REMARK   17  A    between atoms: _48  and  _51
REMARK   18  A    between atoms: _51  and  _52
REMARK   19  A    between atoms: _57  and  _59
REMARK   20  A    between atoms: _59  and  _60
REMARK   21  A    between atoms: _59  and  _62
REMARK   22  A    between atoms: _62  and  _63
REMARK   23  A    between atoms: _68  and  _70
REMARK   24  A    between atoms: _70  and  _71
REMARK   25  A    between atoms: _70  and  _73
REMARK   26  A    between atoms: _73  and  _74
REMARK   27  A    between atoms: _79  and  _81
REMARK   28  A    between atoms: _81  and  _82
REMARK   29  A    between atoms: _81  and  _84
REMARK   30  A    between atoms: _84  and  _85
REMARK   31  A    between atoms: _88  and  _90
REMARK   32  A    between atoms: _90  and  _91
REMARK   33  A    between atoms: _90  and  _93
REMARK   34  A    between atoms: _93  and  _94
REMARK   35  A    between atoms: _94  and  _95
REMARK   36  A    between atoms: _100  and  _102
REMARK   37  A    between atoms: _102  and  _103
REMARK   38  A    between atoms: _102  and  _105
REMARK   39  A    between atoms: _105  and  _106
REMARK   40  A    between atoms: _112  and  _114
REMARK   41  A    between atoms: _125  and  _128
REMARK   42  A    between atoms: _128  and  _129
REMARK   43  A    between atoms: _137  and  _138
REMARK   44  A    between atoms: _146  and  _148
REMARK   45  A    between atoms: _148  and  _149
REMARK   46  A    between atoms: _148  and  _151
REMARK   47  A    between atoms: _151  and  _152
REMARK   48  A    between atoms: _152  and  _153
REMARK   49  A    between atoms: _156  and  _158
REMARK   50  A    between atoms: _158  and  _159
REMARK   51  A    between atoms: _158  and  _161
REMARK   52  A    between atoms: _161  and  _162
REMARK   53  A    between atoms: _167  and  _169
REMARK   54  A    between atoms: _169  and  _170
REMARK   55  A    between atoms: _169  and  _172
REMARK   56  A    between atoms: _172  and  _173
REMARK   57  A    between atoms: _173  and  _174
REMARK   58  A    between atoms: _177  and  _179
REMARK   59  A    between atoms: _179  and  _180
REMARK   60  A    between atoms: _179  and  _182
REMARK   61  A    between atoms: _182  and  _183
REMARK   62  A    between atoms: _186  and  _188
REMARK   63  A    between atoms: _188  and  _189
REMARK   64  A    between atoms: _188  and  _191
REMARK   65  A    between atoms: _191  and  _192
REMARK   66  A    between atoms: _193  and  ZN_413
REMARK   67  A    between atoms: _197  and  _199
REMARK   68  A    between atoms: _199  and  _200
REMARK   69  A    between atoms: _199  and  _202
REMARK   70  A    between atoms: _202  and  _203
REMARK   71  A    between atoms: _206  and  _208
REMARK   72  A    between atoms: _208  and  _209
REMARK   73  A    between atoms: _208  and  _211
REMARK   74  A    between atoms: _214  and  _216
REMARK   75  A    between atoms: _216  and  _217
REMARK   76  A    between atoms: _216  and  _219
REMARK   77  A    between atoms: _219  and  _220
REMARK   78  A    between atoms: _225  and  _227
REMARK   79  A    between atoms: _227  and  _228
REMARK   80  A    between atoms: _227  and  _230
REMARK   81  A    between atoms: _230  and  _231
REMARK   82  A    between atoms: _237  and  _239
REMARK   83  A    between atoms: _239  and  _240
REMARK   84  A    between atoms: _239  and  _242
REMARK   85  A    between atoms: _245  and  _247
REMARK   86  A    between atoms: _247  and  _248
REMARK   87  A    between atoms: _247  and  _250
REMARK   88  A    between atoms: _250  and  _251
REMARK   89  A    between atoms: _254  and  _256
REMARK   90  A    between atoms: _256  and  _257
REMARK   91  A    between atoms: _260  and  _262
REMARK   92  A    between atoms: _262  and  _263
REMARK   93  A    between atoms: _262  and  _265
REMARK   94  A    between atoms: _268  and  _270
REMARK   95  A    between atoms: _270  and  _271
REMARK   96  A    between atoms: _270  and  _273
REMARK   97  A    between atoms: _273  and  _274
REMARK   98  A    between atoms: _277  and  _279
REMARK   99  A    between atoms: _279  and  _280
REMARK  100  A    between atoms: _282  and  _284
REMARK  101  A    between atoms: _284  and  _285
REMARK  102  A    between atoms: _287  and  _289
REMARK  103  A    between atoms: _289  and  _290
REMARK  104  A    between atoms: _289  and  _292
REMARK  105  A    between atoms: _292  and  _293
REMARK  106  A    between atoms: _295  and  _297
REMARK  107  A    between atoms: _297  and  _298
REMARK  108  A    between atoms: _297  and  _300
REMARK  109  A    between atoms: _300  and  _301
REMARK  110  A    between atoms: _304  and  _306
REMARK  111  A    between atoms: _306  and  _307
REMARK  112  A    between atoms: _306  and  _309
REMARK  113  A    between atoms: _309  and  _310
REMARK  114  A    between atoms: _313  and  _315
REMARK  115  A    between atoms: _315  and  _316
REMARK  116  A    between atoms: _315  and  _318
REMARK  117  A    between atoms: _318  and  _319
REMARK  118  A    between atoms: _323  and  _324
REMARK  119  A    between atoms: _330  and  _331
REMARK  120  A    between atoms: _336  and  _338
REMARK  121  A    between atoms: _338  and  _339
REMARK  122  A    between atoms: _338  and  _341
REMARK  123  A    between atoms: _341  and  _342
REMARK  124  A    between atoms: _345  and  _347
REMARK  125  A    between atoms: _347  and  _348
REMARK  126  A    between atoms: _347  and  _350
REMARK  127  A    between atoms: _350  and  _351
REMARK  128  A    between atoms: _354  and  _356
REMARK  129  A    between atoms: _356  and  _357
REMARK  130  A    between atoms: _356  and  _359
REMARK  131  A    between atoms: _361  and  _363
REMARK  132  A    between atoms: _363  and  _364
REMARK  133  A    between atoms: _363  and  _366
REMARK  134  A    between atoms: _369  and  _371
REMARK  135  A    between atoms: _371  and  _372
REMARK  136  A    between atoms: _371  and  _374
REMARK  137  A    between atoms: _374  and  _375
REMARK  138  A    between atoms: _385  and  _387
REMARK  139  A    between atoms: _387  and  _388
REMARK  140  A    between atoms: _387  and  _390
REMARK  141  A    between atoms: _390  and  _391
REMARK  142  A    between atoms: _396  and  _398
REMARK  143  A    between atoms: _398  and  _399
REMARK  144  A    between atoms: _398  and  _401
REMARK  145  A    between atoms: _401  and  _402
REMARK  146  A    between atoms: _402  and  _403
REMARK  147  A    between atoms: _403  and  _404
REMARK                            x       y       z     vdW  Elec       q    Type
REMARK                         _______ _______ _______ _____ _____    ______ ____
ROOT
ATOM      1  CB  PHE A   1      -7.598  12.535  14.001  0.00  0.00    +0.051 C 
ENDROOT
BRANCH   1   2
ATOM      2  CG  PHE A   1      -7.066  11.180  14.341  0.00  0.00    -0.020 A 
ATOM      3  CD2 PHE A   1      -7.885  10.222  14.881  0.00  0.00    -0.004 A 
ATOM      4  CE2 PHE A   1      -7.392   8.973  15.182  0.00  0.00    -0.000 A 
ATOM      5  CZ  PHE A   1      -6.057   8.686  14.956  0.00  0.00    -0.000 A 
ATOM      6  CE1 PHE A   1      -5.237   9.639  14.442  0.00  0.00    -0.000 A 
ATOM      7  CD1 PHE A   1      -5.731  10.870  14.123  0.00  0.00    -0.004 A 
ENDBRANCH   1   2
BRANCH   1   8
ATOM      8  CA  PHE A   1      -7.481  13.557  15.134  0.00  0.00    +0.137 C 
BRANCH   8   9
ATOM      9  N   PHE A   1      -8.014  14.840  14.691  0.00  0.00    -0.239 NA
ATOM     10  H   PHE A   1      -8.279  14.970  13.694  0.00  0.00    +0.142 HD
ENDBRANCH   8   9
BRANCH   8  11
ATOM     11  C   PHE A   1      -6.039  13.673  15.607  0.00  0.00    +0.224 C 
ATOM     12  O   PHE A   1      -5.652  13.053  16.583  0.00  0.00    -0.287 OA
ENDBRANCH   8  11
ENDBRANCH   1   8
TORSDOF 4
REMARK  Name = ../refined-set-2016/3igp/3igp_pocket.pdb
REMARK  147 active torsions:
REMARK  status: ('A' for Active; 'I' for Inactive)
REMARK    1  A    between atoms: _1  and  _3
REMARK    2  A    between atoms: _3  and  _4
REMARK    3  A    between atoms: _3  and  _6
REMARK    4  A    between atoms: _6  and  _7
REMARK    5  A    between atoms: _17  and  _19
REMARK    6  A    between atoms: _19  and  _20
REMARK    7  A    between atoms: _19  and  _22
REMARK    8  A    between atoms: _22  and  _23
REMARK    9  A    between atoms: _28  and  _29
REMARK   10  A    between atoms: _31  and  _33
REMARK   11  A    between atoms: _33  and  _34
REMARK   12  A    between atoms: _33  and  _36
REMARK   13  A    between atoms: _36  and  _37
REMARK   14  A    between atoms: _40  and  _41
REMARK   15  A    between atoms: _46  and  _48
REMARK   16  A    between atoms: _48  and  _49
REMARK   17  A    between atoms: _48  and  _51
REMARK   18  A    between atoms: _51  and  _52
REMARK   19  A    between atoms: _57  and  _59
REMARK   20  A    between atoms: _59  and  _60
REMARK   21  A    between atoms: _59  and  _62
REMARK   22  A    between atoms: _62  and  _63
REMARK   23  A    between atoms: _68  and  _70
REMARK   24  A    between atoms: _70  and  _71
REMARK   25  A    between atoms: _70  and  _73
REMARK   26  A    between atoms: _73  and  _74
REMARK   27  A    between atoms: _79  and  _81
REMARK   28  A    between atoms: _81  and  _82
REMARK   29  A    between atoms: _81  and  _84
REMARK   30  A    between atoms: _84  and  _85
REMARK   31  A    between atoms: _88  and  _90
REMARK   32  A    between atoms: _90  and  _91
REMARK   33  A    between atoms: _90  and  _93
REMARK   34  A    between atoms: _93  and  _94
REMARK   35  A    between atoms: _94  and  _95
REMARK   36  A    between atoms: _100  and  _102
REMARK   37  A    between atoms: _102  and  _103
REMARK   38  A    between atoms: _102  and  _105
REMARK   39  A    between atoms: _105  and  _106
REMARK   40  A    between atoms: _112  and  _114
REMARK   41  A    between atoms: _125  and  _128
REMARK   42  A    between atoms: _128  and  _129
REMARK   43  A    between atoms: _137  and  _138
REMARK   44  A    between atoms: _146  and  _148
REMARK   45  A    between atoms: _148  and  _149
REMARK   46  A    between atoms: _148  and  _151
REMARK   47  A    between atoms: _151  and  _152
REMARK   48  A    between atoms: _152  and  _153
REMARK   49  A    between atoms: _156  and  _158
REMARK   50  A    between atoms: _158  and  _159
REMARK   51  A    between atoms: _158  and  _161
REMARK   52  A    between atoms: _161  and  _162
REMARK   53  A    between atoms: _167  and  _169
REMARK   54  A    between atoms: _169  and  _170
REMARK   55  A    between atoms: _169  and  _172
REMARK   56  A    between atoms: _172  and  _173
REMARK   57  A    between atoms: _173  and  _174
REMARK   58  A    between atoms: _177  and  _179
REMARK   59  A    between atoms: _179  and  _180
REMARK   60  A    between atoms: _179  and  _182
REMARK   61  A    between atoms: _182  and  _183
REMARK   62  A    between atoms: _186  and  _188
REMARK   63  A    between atoms: _188  and  _189
REMARK   64  A    between atoms: _188  and  _191
REMARK   65  A    between atoms: _191  and  _192
REMARK   66  A    between atoms: _193  and  ZN_413
REMARK   67  A    between atoms: _197  and  _199
REMARK   68  A    between atoms: _199  and  _200
REMARK   69  A    between atoms: _199  and  _202
REMARK   70  A    between atoms: _202  and  _203
REMARK   71  A    between atoms: _206  and  _208
REMARK   72  A    between atoms: _208  and  _209
REMARK   73  A    between atoms: _208  and  _211
REMARK   74  A    between atoms: _214  and  _216
REMARK   75  A    between atoms: _216  and  _217
REMARK   76  A    between atoms: _216  and  _219
REMARK   77  A    between atoms: _219  and  _220
REMARK   78  A    between atoms: _225  and  _227
REMARK   79  A    between atoms: _227  and  _228
REMARK   80  A    between atoms: _227  and  _230
REMARK   81  A    between atoms: _230  and  _231
REMARK   82  A    between atoms: _237  and  _239
REMARK   83  A    between atoms: _239  and  _240
REMARK   84  A    between atoms: _239  and  _242
REMARK   85  A    between atoms: _245  and  _247
REMARK   86  A    between atoms: _247  and  _248
REMARK   87  A    between atoms: _247  and  _250
REMARK   88  A    between atoms: _250  and  _251
REMARK   89  A    between atoms: _254  and  _256
REMARK   90  A    between atoms: _256  and  _257
REMARK   91  A    between atoms: _260  and  _262
REMARK   92  A    between atoms: _262  and  _263
REMARK   93  A    between atoms: _262  and  _265
REMARK   94  A    between atoms: _268  and  _270
REMARK   95  A    between atoms: _270  and  _271
REMARK   96  A    between atoms: _270  and  _273
REMARK   97  A    between atoms: _273  and  _274
REMARK   98  A    between atoms: _277  and  _279
REMARK   99  A    between atoms: _279  and  _280
REMARK  100  A    between atoms: _282  and  _284
REMARK  101  A    between atoms: _284  and  _285
REMARK  102  A    between atoms: _287  and  _289
REMARK  103  A    between atoms: _289  and  _290
REMARK  104  A    between atoms: _289  and  _292
REMARK  105  A    between atoms: _292  and  _293
REMARK  106  A    between atoms: _295  and  _297
REMARK  107  A    between atoms: _297  and  _298
REMARK  108  A    between atoms: _297  and  _300
REMARK  109  A    between atoms: _300  and  _301
REMARK  110  A    between atoms: _304  and  _306
REMARK  111  A    between atoms: _306  and  _307
REMARK  112  A    between atoms: _306  and  _309
REMARK  113  A    between atoms: _309  and  _310
REMARK  114  A    between atoms: _313  and  _315
REMARK  115  A    between atoms: _315  and  _316
REMARK  116  A    between atoms: _315  and  _318
REMARK  117  A    between atoms: _318  and  _319
REMARK  118  A    between atoms: _323  and  _324
REMARK  119  A    between atoms: _330  and  _331
REMARK  120  A    between atoms: _336  and  _338
REMARK  121  A    between atoms: _338  and  _339
REMARK  122  A    between atoms: _338  and  _341
REMARK  123  A    between atoms: _341  and  _342
REMARK  124  A    between atoms: _345  and  _347
REMARK  125  A    between atoms: _347  and  _348
REMARK  126  A    between atoms: _347  and  _350
REMARK  127  A    between atoms: _350  and  _351
REMARK  128  A    between atoms: _354  and  _356
REMARK  129  A    between atoms: _356  and  _357
REMARK  130  A    between atoms: _356  and  _359
REMARK  131  A    between atoms: _361  and  _363
REMARK  132  A    between atoms: _363  and  _364
REMARK  133  A    between atoms: _363  and  _366
REMARK  134  A    between atoms: _369  and  _371
REMARK  135  A    between atoms: _371  and  _372
REMARK  136  A    between atoms: _371  and  _374
REMARK  137  A    between atoms: _374  and  _375
REMARK  138  A    between atoms: _385  and  _387
REMARK  139  A    between atoms: _387  and  _388
REMARK  140  A    between atoms: _387  and  _390
REMARK  141  A    between atoms: _390  and  _391
REMARK  142  A    between atoms: _396  and  _398
REMARK  143  A    between atoms: _398  and  _399
REMARK  144  A    between atoms: _398  and  _401
REMARK  145  A    between atoms: _401  and  _402
REMARK  146  A    between atoms: _402  and  _403
REMARK  147  A    between atoms: _403  and  _404
REMARK                            x       y       z     vdW  Elec       q    Type
REMARK                         _______ _______ _______ _____ _____    ______ ____
ROOT
ATOM      1  CA  VAL A   1      -3.830  11.410  19.833  0.00  0.00    +0.133 C 
ENDROOT
BRANCH   1   2
ATOM      2  CB  VAL A   1      -3.188  10.750  18.592  0.00  0.00    +0.023 C 
ATOM      3  CG2 VAL A   1      -2.399  11.752  17.779  0.00  0.00    +0.002 C 
ATOM      4  CG1 VAL A   1      -4.252  10.093  17.750  0.00  0.00    +0.002 C 
ENDBRANCH   1   2
BRANCH   1   5
ATOM      5  N   VAL A   1      -4.742  12.506  19.474  0.00  0.00    -0.239 NA
ATOM      6  H   VAL A   1      -4.730  12.898  18.511  0.00  0.00    +0.142 HD
ENDBRANCH   1   5
BRANCH   1   7
ATOM      7  C   VAL A   1      -2.735  11.828  20.805  0.00  0.00    +0.224 C 
ATOM      8  O   VAL A   1      -2.045  10.978  21.363  0.00  0.00    -0.287 OA
ENDBRANCH   1   7
TORSDOF 3
REMARK  Name = ../refined-set-2016/3igp/3igp_pocket.pdb
REMARK  147 active torsions:
REMARK  status: ('A' for Active; 'I' for Inactive)
REMARK    1  A    between atoms: _1  and  _3
REMARK    2  A    between atoms: _3  and  _4
REMARK    3  A    between atoms: _3  and  _6
REMARK    4  A    between atoms: _6  and  _7
REMARK    5  A    between atoms: _17  and  _19
REMARK    6  A    between atoms: _19  and  _20
REMARK    7  A    between atoms: _19  and  _22
REMARK    8  A    between atoms: _22  and  _23
REMARK    9  A    between atoms: _28  and  _29
REMARK   10  A    between atoms: _31  and  _33
REMARK   11  A    between atoms: _33  and  _34
REMARK   12  A    between atoms: _33  and  _36
REMARK   13  A    between atoms: _36  and  _37
REMARK   14  A    between atoms: _40  and  _41
REMARK   15  A    between atoms: _46  and  _48
REMARK   16  A    between atoms: _48  and  _49
REMARK   17  A    between atoms: _48  and  _51
REMARK   18  A    between atoms: _51  and  _52
REMARK   19  A    between atoms: _57  and  _59
REMARK   20  A    between atoms: _59  and  _60
REMARK   21  A    between atoms: _59  and  _62
REMARK   22  A    between atoms: _62  and  _63
REMARK   23  A    between atoms: _68  and  _70
REMARK   24  A    between atoms: _70  and  _71
REMARK   25  A    between atoms: _70  and  _73
REMARK   26  A    between atoms: _73  and  _74
REMARK   27  A    between atoms: _79  and  _81
REMARK   28  A    between atoms: _81  and  _82
REMARK   29  A    between atoms: _81  and  _84
REMARK   30  A    between atoms: _84  and  _85
REMARK   31  A    between atoms: _88  and  _90
REMARK   32  A    between atoms: _90  and  _91
REMARK   33  A    between atoms: _90  and  _93
REMARK   34  A    between atoms: _93  and  _94
REMARK   35  A    between atoms: _94  and  _95
REMARK   36  A    between atoms: _100  and  _102
REMARK   37  A    between atoms: _102  and  _103
REMARK   38  A    between atoms: _102  and  _105
REMARK   39  A    between atoms: _105  and  _106
REMARK   40  A    between atoms: _112  and  _114
REMARK   41  A    between atoms: _125  and  _128
REMARK   42  A    between atoms: _128  and  _129
REMARK   43  A    between atoms: _137  and  _138
REMARK   44  A    between atoms: _146  and  _148
REMARK   45  A    between atoms: _148  and  _149
REMARK   46  A    between atoms: _148  and  _151
REMARK   47  A    between atoms: _151  and  _152
REMARK   48  A    between atoms: _152  and  _153
REMARK   49  A    between atoms: _156  and  _158
REMARK   50  A    between atoms: _158  and  _159
REMARK   51  A    between atoms: _158  and  _161
REMARK   52  A    between atoms: _161  and  _162
REMARK   53  A    between atoms: _167  and  _169
REMARK   54  A    between atoms: _169  and  _170
REMARK   55  A    between atoms: _169  and  _172
REMARK   56  A    between atoms: _172  and  _173
REMARK   57  A    between atoms: _173  and  _174
REMARK   58  A    between atoms: _177  and  _179
REMARK   59  A    between atoms: _179  and  _180
REMARK   60  A    between atoms: _179  and  _182
REMARK   61  A    between atoms: _182  and  _183
REMARK   62  A    between atoms: _186  and  _188
REMARK   63  A    between atoms: _188  and  _189
REMARK   64  A    between atoms: _188  and  _191
REMARK   65  A    between atoms: _191  and  _192
REMARK   66  A    between atoms: _193  and  ZN_413
REMARK   67  A    between atoms: _197  and  _199
REMARK   68  A    between atoms: _199  and  _200
REMARK   69  A    between atoms: _199  and  _202
REMARK   70  A    between atoms: _202  and  _203
REMARK   71  A    between atoms: _206  and  _208
REMARK   72  A    between atoms: _208  and  _209
REMARK   73  A    between atoms: _208  and  _211
REMARK   74  A    between atoms: _214  and  _216
REMARK   75  A    between atoms: _216  and  _217
REMARK   76  A    between atoms: _216  and  _219
REMARK   77  A    between atoms: _219  and  _220
REMARK   78  A    between atoms: _225  and  _227
REMARK   79  A    between atoms: _227  and  _228
REMARK   80  A    between atoms: _227  and  _230
REMARK   81  A    between atoms: _230  and  _231
REMARK   82  A    between atoms: _237  and  _239
REMARK   83  A    between atoms: _239  and  _240
REMARK   84  A    between atoms: _239  and  _242
REMARK   85  A    between atoms: _245  and  _247
REMARK   86  A    between atoms: _247  and  _248
REMARK   87  A    between atoms: _247  and  _250
REMARK   88  A    between atoms: _250  and  _251
REMARK   89  A    between atoms: _254  and  _256
REMARK   90  A    between atoms: _256  and  _257
REMARK   91  A    between atoms: _260  and  _262
REMARK   92  A    between atoms: _262  and  _263
REMARK   93  A    between atoms: _262  and  _265
REMARK   94  A    between atoms: _268  and  _270
REMARK   95  A    between atoms: _270  and  _271
REMARK   96  A    between atoms: _270  and  _273
REMARK   97  A    between atoms: _273  and  _274
REMARK   98  A    between atoms: _277  and  _279
REMARK   99  A    between atoms: _279  and  _280
REMARK  100  A    between atoms: _282  and  _284
REMARK  101  A    between atoms: _284  and  _285
REMARK  102  A    between atoms: _287  and  _289
REMARK  103  A    between atoms: _289  and  _290
REMARK  104  A    between atoms: _289  and  _292
REMARK  105  A    between atoms: _292  and  _293
REMARK  106  A    between atoms: _295  and  _297
REMARK  107  A    between atoms: _297  and  _298
REMARK  108  A    between atoms: _297  and  _300
REMARK  109  A    between atoms: _300  and  _301
REMARK  110  A    between atoms: _304  and  _306
REMARK  111  A    between atoms: _306  and  _307
REMARK  112  A    between atoms: _306  and  _309
REMARK  113  A    between atoms: _309  and  _310
REMARK  114  A    between atoms: _313  and  _315
REMARK  115  A    between atoms: _315  and  _316
REMARK  116  A    between atoms: _315  and  _318
REMARK  117  A    between atoms: _318  and  _319
REMARK  118  A    between atoms: _323  and  _324
REMARK  119  A    between atoms: _330  and  _331
REMARK  120  A    between atoms: _336  and  _338
REMARK  121  A    between atoms: _338  and  _339
REMARK  122  A    between atoms: _338  and  _341
REMARK  123  A    between atoms: _341  and  _342
REMARK  124  A    between atoms: _345  and  _347
REMARK  125  A    between atoms: _347  and  _348
REMARK  126  A    between atoms: _347  and  _350
REMARK  127  A    between atoms: _350  and  _351
REMARK  128  A    between atoms: _354  and  _356
REMARK  129  A    between atoms: _356  and  _357
REMARK  130  A    between atoms: _356  and  _359
REMARK  131  A    between atoms: _361  and  _363
REMARK  132  A    between atoms: _363  and  _364
REMARK  133  A    between atoms: _363  and  _366
REMARK  134  A    between atoms: _369  and  _371
REMARK  135  A    between atoms: _371  and  _372
REMARK  136  A    between atoms: _371  and  _374
REMARK  137  A    between atoms: _374  and  _375
REMARK  138  A    between atoms: _385  and  _387
REMARK  139  A    between atoms: _387  and  _388
REMARK  140  A    between atoms: _387  and  _390
REMARK  141  A    between atoms: _390  and  _391
REMARK  142  A    between atoms: _396  and  _398
REMARK  143  A    between atoms: _398  and  _399
REMARK  144  A    between atoms: _398  and  _401
REMARK  145  A    between atoms: _401  and  _402
REMARK  146  A    between atoms: _402  and  _403
REMARK  147  A    between atoms: _403  and  _404
REMARK                            x       y       z     vdW  Elec       q    Type
REMARK                         _______ _______ _______ _____ _____    ______ ____
ROOT
ATOM      1  CA  VAL A   3     -11.896   2.646  19.993  0.00  0.00    +0.149 C 
ENDROOT
BRANCH   1   3
ATOM      2  C   ALA A   2     -12.319   4.906  20.760  0.00  0.00    +0.241 C 
ATOM      3  N   VAL A   3     -11.841   3.691  20.992  0.00  0.00    -0.297 N 
ATOM      4  H   VAL A   3     -11.415   3.484  21.918  0.00  0.00    +0.150 HD
ATOM      5  O   ALA A   2     -12.744   5.267  19.670  0.00  0.00    -0.273 OA
BRANCH   2   6
ATOM      6  CA  ALA A   2     -12.256   5.894  21.923  0.00  0.00    +0.149 C 
ATOM      7  CB  ALA A   2     -13.646   6.339  22.345  0.00  0.00    +0.031 C 
BRANCH   6  10
ATOM      8  C   LEU A   1     -10.457   7.542  22.064  0.00  0.00    +0.238 C 
ATOM      9  O   LEU A   1     -10.186   7.263  23.220  0.00  0.00    -0.274 OA
ATOM     10  N   ALA A   2     -11.489   7.022  21.407  0.00  0.00    -0.297 N 
ATOM     11  H   ALA A   2     -11.759   7.435  20.491  0.00  0.00    +0.150 HD
BRANCH   8  12
ATOM     12  CA  LEU A   1      -9.606   8.516  21.280  0.00  0.00    +0.145 C 
BRANCH  12  13
ATOM     13  N   LEU A   1      -8.882   9.467  22.132  0.00  0.00    -0.238 NA
ATOM     14  H   LEU A   1      -8.265   9.108  22.889  0.00  0.00    +0.142 HD
ENDBRANCH  12  13
BRANCH  12  15
ATOM     15  CB  LEU A   1      -8.644   7.689  20.422  0.00  0.00    +0.026 C 
BRANCH  15  16
ATOM     16  CG  LEU A   1      -7.635   8.319  19.458  0.00  0.00    +0.002 C 
ATOM     17  CD2 LEU A   1      -8.162   9.468  18.654  0.00  0.00    +0.000 C 
ATOM     18  CD1 LEU A   1      -7.134   7.221  18.552  0.00  0.00    +0.000 C 
ENDBRANCH  15  16
ENDBRANCH  12  15
ENDBRANCH   8  12
ENDBRANCH   6  10
ENDBRANCH   2   6
ENDBRANCH   1   3
BRANCH   1  19
ATOM     19  C   VAL A   3     -12.857   1.585  20.494  0.00  0.00    +0.241 C 
ATOM     20  O   VAL A   3     -12.723   1.081  21.618  0.00  0.00    -0.273 OA
ATOM     21  N   LEU A   4     -13.837   1.272  19.652  0.00  0.00    -0.297 N 
ATOM     22  H   LEU A   4     -13.898   1.775  18.744  0.00  0.00    +0.150 HD
BRANCH  21  23
ATOM     23  CA  LEU A   4     -14.823   0.254  19.956  0.00  0.00    +0.149 C 
BRANCH  23  24
ATOM     24  C   LEU A   4     -14.331  -1.016  19.300  0.00  0.00    +0.241 C 
ATOM     25  N   GLY A   5     -14.000  -2.024  20.109  0.00  0.00    -0.296 N 
ATOM     26  H   GLY A   5     -14.144  -1.908  21.132  0.00  0.00    +0.150 HD
ATOM     27  O   LEU A   4     -14.176  -1.047  18.087  0.00  0.00    -0.273 OA
BRANCH  25  28
ATOM     28  CA  GLY A   5     -13.451  -3.269  19.627  0.00  0.00    +0.163 C 
BRANCH  28  29
ATOM     29  C   GLY A   5     -14.489  -4.363  19.635  0.00  0.00    +0.229 C 
ATOM     30  O   GLY A   5     -15.236  -4.520  20.602  0.00  0.00    -0.286 OA
ENDBRANCH  28  29
ENDBRANCH  25  28
ENDBRANCH  23  24
BRANCH  23  31
ATOM     31  CB  LEU A   4     -16.184   0.704  19.421  0.00  0.00    +0.029 C 
BRANCH  31  32
ATOM     32  CG  LEU A   4     -17.404  -0.208  19.514  0.00  0.00    +0.002 C 
ATOM     33  CD2 LEU A   4     -17.659  -0.562  20.966  0.00  0.00    +0.000 C 
ATOM     34  CD1 LEU A   4     -18.618   0.498  18.912  0.00  0.00    +0.000 C 
ENDBRANCH  31  32
ENDBRANCH  23  31
ENDBRANCH  21  23
ENDBRANCH   1  19
BRANCH   1  35
ATOM     35  CB  VAL A   3     -10.516   2.092  19.656  0.00  0.00    +0.027 C 
ATOM     36  CG2 VAL A   3      -9.617   3.251  19.162  0.00  0.00    +0.002 C 
ATOM     37  CG1 VAL A   3     -10.626   1.024  18.554  0.00  0.00    +0.002 C 
ENDBRANCH   1  35
TORSDOF 15
REMARK  Name = ../refined-set-2016/3igp/3igp_pocket.pdb
REMARK  147 active torsions:
REMARK  status: ('A' for Active; 'I' for Inactive)
REMARK    1  A    between atoms: _1  and  _3
REMARK    2  A    between atoms: _3  and  _4
REMARK    3  A    between atoms: _3  and  _6
REMARK    4  A    between atoms: _6  and  _7
REMARK    5  A    between atoms: _17  and  _19
REMARK    6  A    between atoms: _19  and  _20
REMARK    7  A    between atoms: _19  and  _22
REMARK    8  A    between atoms: _22  and  _23
REMARK    9  A    between atoms: _28  and  _29
REMARK   10  A    between atoms: _31  and  _33
REMARK   11  A    between atoms: _33  and  _34
REMARK   12  A    between atoms: _33  and  _36
REMARK   13  A    between atoms: _36  and  _37
REMARK   14  A    between atoms: _40  and  _41
REMARK   15  A    between atoms: _46  and  _48
REMARK   16  A    between atoms: _48  and  _49
REMARK   17  A    between atoms: _48  and  _51
REMARK   18  A    between atoms: _51  and  _52
REMARK   19  A    between atoms: _57  and  _59
REMARK   20  A    between atoms: _59  and  _60
REMARK   21  A    between atoms: _59  and  _62
REMARK   22  A    between atoms: _62  and  _63
REMARK   23  A    between atoms: _68  and  _70
REMARK   24  A    between atoms: _70  and  _71
REMARK   25  A    between atoms: _70  and  _73
REMARK   26  A    between atoms: _73  and  _74
REMARK   27  A    between atoms: _79  and  _81
REMARK   28  A    between atoms: _81  and  _82
REMARK   29  A    between atoms: _81  and  _84
REMARK   30  A    between atoms: _84  and  _85
REMARK   31  A    between atoms: _88  and  _90
REMARK   32  A    between atoms: _90  and  _91
REMARK   33  A    between atoms: _90  and  _93
REMARK   34  A    between atoms: _93  and  _94
REMARK   35  A    between atoms: _94  and  _95
REMARK   36  A    between atoms: _100  and  _102
REMARK   37  A    between atoms: _102  and  _103
REMARK   38  A    between atoms: _102  and  _105
REMARK   39  A    between atoms: _105  and  _106
REMARK   40  A    between atoms: _112  and  _114
REMARK   41  A    between atoms: _125  and  _128
REMARK   42  A    between atoms: _128  and  _129
REMARK   43  A    between atoms: _137  and  _138
REMARK   44  A    between atoms: _146  and  _148
REMARK   45  A    between atoms: _148  and  _149
REMARK   46  A    between atoms: _148  and  _151
REMARK   47  A    between atoms: _151  and  _152
REMARK   48  A    between atoms: _152  and  _153
REMARK   49  A    between atoms: _156  and  _158
REMARK   50  A    between atoms: _158  and  _159
REMARK   51  A    between atoms: _158  and  _161
REMARK   52  A    between atoms: _161  and  _162
REMARK   53  A    between atoms: _167  and  _169
REMARK   54  A    between atoms: _169  and  _170
REMARK   55  A    between atoms: _169  and  _172
REMARK   56  A    between atoms: _172  and  _173
REMARK   57  A    between atoms: _173  and  _174
REMARK   58  A    between atoms: _177  and  _179
REMARK   59  A    between atoms: _179  and  _180
REMARK   60  A    between atoms: _179  and  _182
REMARK   61  A    between atoms: _182  and  _183
REMARK   62  A    between atoms: _186  and  _188
REMARK   63  A    between atoms: _188  and  _189
REMARK   64  A    between atoms: _188  and  _191
REMARK   65  A    between atoms: _191  and  _192
REMARK   66  A    between atoms: _193  and  ZN_413
REMARK   67  A    between atoms: _197  and  _199
REMARK   68  A    between atoms: _199  and  _200
REMARK   69  A    between atoms: _199  and  _202
REMARK   70  A    between atoms: _202  and  _203
REMARK   71  A    between atoms: _206  and  _208
REMARK   72  A    between atoms: _208  and  _209
REMARK   73  A    between atoms: _208  and  _211
REMARK   74  A    between atoms: _214  and  _216
REMARK   75  A    between atoms: _216  and  _217
REMARK   76  A    between atoms: _216  and  _219
REMARK   77  A    between atoms: _219  and  _220
REMARK   78  A    between atoms: _225  and  _227
REMARK   79  A    between atoms: _227  and  _228
REMARK   80  A    between atoms: _227  and  _230
REMARK   81  A    between atoms: _230  and  _231
REMARK   82  A    between atoms: _237  and  _239
REMARK   83  A    between atoms: _239  and  _240
REMARK   84  A    between atoms: _239  and  _242
REMARK   85  A    between atoms: _245  and  _247
REMARK   86  A    between atoms: _247  and  _248
REMARK   87  A    between atoms: _247  and  _250
REMARK   88  A    between atoms: _250  and  _251
REMARK   89  A    between atoms: _254  and  _256
REMARK   90  A    between atoms: _256  and  _257
REMARK   91  A    between atoms: _260  and  _262
REMARK   92  A    between atoms: _262  and  _263
REMARK   93  A    between atoms: _262  and  _265
REMARK   94  A    between atoms: _268  and  _270
REMARK   95  A    between atoms: _270  and  _271
REMARK   96  A    between atoms: _270  and  _273
REMARK   97  A    between atoms: _273  and  _274
REMARK   98  A    between atoms: _277  and  _279
REMARK   99  A    between atoms: _279  and  _280
REMARK  100  A    between atoms: _282  and  _284
REMARK  101  A    between atoms: _284  and  _285
REMARK  102  A    between atoms: _287  and  _289
REMARK  103  A    between atoms: _289  and  _290
REMARK  104  A    between atoms: _289  and  _292
REMARK  105  A    between atoms: _292  and  _293
REMARK  106  A    between atoms: _295  and  _297
REMARK  107  A    between atoms: _297  and  _298
REMARK  108  A    between atoms: _297  and  _300
REMARK  109  A    between atoms: _300  and  _301
REMARK  110  A    between atoms: _304  and  _306
REMARK  111  A    between atoms: _306  and  _307
REMARK  112  A    between atoms: _306  and  _309
REMARK  113  A    between atoms: _309  and  _310
REMARK  114  A    between atoms: _313  and  _315
REMARK  115  A    between atoms: _315  and  _316
REMARK  116  A    between atoms: _315  and  _318
REMARK  117  A    between atoms: _318  and  _319
REMARK  118  A    between atoms: _323  and  _324
REMARK  119  A    between atoms: _330  and  _331
REMARK  120  A    between atoms: _336  and  _338
REMARK  121  A    between atoms: _338  and  _339
REMARK  122  A    between atoms: _338  and  _341
REMARK  123  A    between atoms: _341  and  _342
REMARK  124  A    between atoms: _345  and  _347
REMARK  125  A    between atoms: _347  and  _348
REMARK  126  A    between atoms: _347  and  _350
REMARK  127  A    between atoms: _350  and  _351
REMARK  128  A    between atoms: _354  and  _356
REMARK  129  A    between atoms: _356  and  _357
REMARK  130  A    between atoms: _356  and  _359
REMARK  131  A    between atoms: _361  and  _363
REMARK  132  A    between atoms: _363  and  _364
REMARK  133  A    between atoms: _363  and  _366
REMARK  134  A    between atoms: _369  and  _371
REMARK  135  A    between atoms: _371  and  _372
REMARK  136  A    between atoms: _371  and  _374
REMARK  137  A    between atoms: _374  and  _375
REMARK  138  A    between atoms: _385  and  _387
REMARK  139  A    between atoms: _387  and  _388
REMARK  140  A    between atoms: _387  and  _390
REMARK  141  A    between atoms: _390  and  _391
REMARK  142  A    between atoms: _396  and  _398
REMARK  143  A    between atoms: _398  and  _399
REMARK  144  A    between atoms: _398  and  _401
REMARK  145  A    between atoms: _401  and  _402
REMARK  146  A    between atoms: _402  and  _403
REMARK  147  A    between atoms: _403  and  _404
REMARK                            x       y       z     vdW  Elec       q    Type
REMARK                         _______ _______ _______ _____ _____    ______ ____
ROOT
ATOM      1  CA  THR A   5       0.323   0.026  16.160  0.00  0.00    +0.176 C 
ENDROOT
BRANCH   1   2
ATOM      2  C   THR A   5       1.177   1.238  16.512  0.00  0.00    +0.246 C 
ATOM      3  O   THR A   5       0.694   2.186  17.155  0.00  0.00    -0.273 OA
ATOM      4  N   PRO A   6       2.441   1.235  16.049  0.00  0.00    -0.272 N 
ATOM      5  CA  PRO A   6       3.208   2.461  16.139  0.00  0.00    +0.152 C 
ATOM      6  CB  PRO A   6       4.406   2.151  15.249  0.00  0.00    +0.031 C 
ATOM      7  CG  PRO A   6       4.630   0.710  15.509  0.00  0.00    +0.024 C 
ATOM      8  CD  PRO A   6       3.234   0.162  15.430  0.00  0.00    +0.094 C 
BRANCH   5   9
ATOM      9  C   PRO A   6       2.367   3.601  15.613  0.00  0.00    +0.244 C 
ATOM     10  N   PRO A   7       2.439   4.781  16.254  0.00  0.00    -0.272 N 
ATOM     11  CA  PRO A   7       3.343   5.200  17.334  0.00  0.00    +0.152 C 
ATOM     12  CB  PRO A   7       3.316   6.721  17.194  0.00  0.00    +0.031 C 
ATOM     13  CG  PRO A   7       1.949   7.008  16.746  0.00  0.00    +0.024 C 
ATOM     14  CD  PRO A   7       1.565   5.887  15.829  0.00  0.00    +0.094 C 
ATOM     15  O   PRO A   6       1.667   3.434  14.608  0.00  0.00    -0.273 OA
BRANCH  11  16
ATOM     16  C   PRO A   7       2.946   4.797  18.782  0.00  0.00    +0.241 C 
ATOM     17  O   PRO A   7       3.591   5.249  19.730  0.00  0.00    -0.273 OA
ATOM     18  N   LEU A   8       1.924   3.956  18.934  0.00  0.00    -0.297 N 
ATOM     19  H   LEU A   8       1.333   3.740  18.106  0.00  0.00    +0.150 HD
BRANCH  18  20
ATOM     20  CA  LEU A   8       1.591   3.316  20.221  0.00  0.00    +0.149 C 
BRANCH  20  21
ATOM     21  C   LEU A   8       1.222   4.316  21.323  0.00  0.00    +0.241 C 
ATOM     22  O   LEU A   8       1.371   4.045  22.536  0.00  0.00    -0.273 OA
ATOM     23  N   LEU A   9       0.710   5.461  20.897  0.00  0.00    -0.298 N 
ATOM     24  H   LEU A   9       0.519   5.585  19.882  0.00  0.00    +0.150 HD
BRANCH  23  25
ATOM     25  CA  LEU A   9       0.409   6.547  21.813  0.00  0.00    +0.137 C 
BRANCH  25  26
ATOM     26  C   LEU A   9      -0.649   6.126  22.814  0.00  0.00    +0.227 C 
ATOM     27  O   LEU A   9      -1.627   5.454  22.477  0.00  0.00    -0.286 OA
ENDBRANCH  25  26
BRANCH  25  28
ATOM     28  CB  LEU A   9      -0.066   7.797  21.063  0.00  0.00    +0.028 C 
BRANCH  28  29
ATOM     29  CG  LEU A   9       0.968   8.412  20.113  0.00  0.00    +0.002 C 
ATOM     30  CD2 LEU A   9       2.189   8.887  20.882  0.00  0.00    +0.000 C 
ATOM     31  CD1 LEU A   9       0.389   9.543  19.270  0.00  0.00    +0.000 C 
ENDBRANCH  28  29
ENDBRANCH  25  28
ENDBRANCH  23  25
ENDBRANCH  20  21
BRANCH  20  32
ATOM     32  CB  LEU A   8       2.724   2.376  20.675  0.00  0.00    +0.029 C 
BRANCH  32  33
ATOM     33  CG  LEU A   8       3.072   1.229  19.714  0.00  0.00    +0.002 C 
ATOM     34  CD2 LEU A   8       4.381   0.550  20.122  0.00  0.00    +0.000 C 
ATOM     35  CD1 LEU A   8       1.951   0.201  19.655  0.00  0.00    +0.000 C 
ENDBRANCH  32  33
ENDBRANCH  20  32
ENDBRANCH  18  20
ENDBRANCH  11  16
ENDBRANCH   5   9
ENDBRANCH   1   2
BRANCH   1  38
ATOM     36  C   THR A   4      -0.976  -1.119  17.904  0.00  0.00    +0.243 C 
ATOM     37  O   THR A   4      -0.384  -2.189  17.774  0.00  0.00    -0.273 OA
ATOM     38  N   THR A   5      -0.785  -0.056  17.115  0.00  0.00    -0.295 N 
ATOM     39  H   THR A   5      -1.448   0.742  17.182  0.00  0.00    +0.150 HD
BRANCH  36  40
ATOM     40  CA  THR A   4      -2.000  -0.972  19.012  0.00  0.00    +0.176 C 
BRANCH  40  43
ATOM     41  C   LEU A   3      -2.187   1.297  19.871  0.00  0.00    +0.241 C 
ATOM     42  O   LEU A   3      -1.201   1.111  20.599  0.00  0.00    -0.273 OA
ATOM     43  N   THR A   4      -2.647   0.345  19.065  0.00  0.00    -0.295 N 
ATOM     44  H   THR A   4      -3.475   0.535  18.465  0.00  0.00    +0.150 HD
BRANCH  41  45
ATOM     45  CA  LEU A   3      -2.899   2.653  19.841  0.00  0.00    +0.149 C 
BRANCH  45  48
ATOM     46  C   SER A   2      -3.430   2.435  22.189  0.00  0.00    +0.243 C 
ATOM     47  O   SER A   2      -4.196   1.475  21.989  0.00  0.00    -0.273 OA
ATOM     48  N   LEU A   3      -2.922   3.172  21.213  0.00  0.00    -0.297 N 
ATOM     49  H   LEU A   3      -2.540   4.117  21.419  0.00  0.00    +0.150 HD
BRANCH  46  50
ATOM     50  CA  SER A   2      -3.008   2.841  23.584  0.00  0.00    +0.178 C 
BRANCH  50  53
ATOM     51  C   GLY A   1      -4.242   2.837  25.684  0.00  0.00    +0.240 C 
ATOM     52  O   GLY A   1      -4.213   4.058  25.817  0.00  0.00    -0.274 OA
ATOM     53  N   SER A   2      -3.803   2.197  24.613  0.00  0.00    -0.295 N 
ATOM     54  H   SER A   2      -4.037   1.190  24.504  0.00  0.00    +0.150 HD
BRANCH  51  55
ATOM     55  CA  GLY A   1      -4.814   1.958  26.766  0.00  0.00    +0.169 C 
BRANCH  55  56
ATOM     56  N   GLY A   1      -5.936   2.566  27.477  0.00  0.00    -0.236 NA
ATOM     57  H   GLY A   1      -6.555   3.238  26.980  0.00  0.00    +0.142 HD
ENDBRANCH  55  56
ENDBRANCH  51  55
ENDBRANCH  50  53
BRANCH  50  58
ATOM     58  CB  SER A   2      -1.543   2.442  23.773  0.00  0.00    +0.166 C 
BRANCH  58  59
ATOM     59  OG  SER A   2      -1.340   1.091  23.339  0.00  0.00    -0.380 OA
ATOM     60  H   SER A   2      -1.577   1.014  22.381  0.00  0.00    +0.211 HD
ENDBRANCH  58  59
ENDBRANCH  50  58
ENDBRANCH  46  50
ENDBRANCH  45  48
BRANCH  45  61
ATOM     61  CB  LEU A   3      -2.148   3.600  18.920  0.00  0.00    +0.029 C 
BRANCH  61  62
ATOM     62  CG  LEU A   3      -2.581   5.057  18.877  0.00  0.00    +0.002 C 
ATOM     63  CD2 LEU A   3      -4.036   5.185  18.446  0.00  0.00    +0.000 C 
ATOM     64  CD1 LEU A   3      -1.632   5.810  17.945  0.00  0.00    +0.000 C 
ENDBRANCH  61  62
ENDBRANCH  45  61
ENDBRANCH  41  45
ENDBRANCH  40  43
BRANCH  40  65
ATOM     65  CB  THR A   4      -2.994  -2.109  18.856  0.00  0.00    +0.137 C 
ATOM     66  CG2 THR A   4      -4.013  -2.090  20.020  0.00  0.00    +0.034 C 
BRANCH  65  67
ATOM     67  OG1 THR A   4      -3.645  -2.026  17.576  0.00  0.00    -0.382 OA
ATOM     68  HG1 THR A   4      -4.290  -2.772  17.486  0.00  0.00    +0.210 HD
ENDBRANCH  65  67
ENDBRANCH  40  65
ENDBRANCH  36  40
ENDBRANCH   1  38
BRANCH   1  69
ATOM     69  CB  THR A   5      -0.133   0.208  14.706  0.00  0.00    +0.137 C 
ATOM     70  CG2 THR A   5      -1.226  -0.831  14.316  0.00  0.00    +0.034 C 
BRANCH  69  71
ATOM     71  OG1 THR A   5      -0.639   1.537  14.504  0.00  0.00    -0.382 OA
ATOM     72  HG1 THR A   5       0.074   2.194  14.704  0.00  0.00    +0.210 HD
ENDBRANCH  69  71
ENDBRANCH   1  69
TORSDOF 28
REMARK  Name = ../refined-set-2016/3igp/3igp_pocket.pdb
REMARK  147 active torsions:
REMARK  status: ('A' for Active; 'I' for Inactive)
REMARK    1  A    between atoms: _1  and  _3
REMARK    2  A    between atoms: _3  and  _4
REMARK    3  A    between atoms: _3  and  _6
REMARK    4  A    between atoms: _6  and  _7
REMARK    5  A    between atoms: _17  and  _19
REMARK    6  A    between atoms: _19  and  _20
REMARK    7  A    between atoms: _19  and  _22
REMARK    8  A    between atoms: _22  and  _23
REMARK    9  A    between atoms: _28  and  _29
REMARK   10  A    between atoms: _31  and  _33
REMARK   11  A    between atoms: _33  and  _34
REMARK   12  A    between atoms: _33  and  _36
REMARK   13  A    between atoms: _36  and  _37
REMARK   14  A    between atoms: _40  and  _41
REMARK   15  A    between atoms: _46  and  _48
REMARK   16  A    between atoms: _48  and  _49
REMARK   17  A    between atoms: _48  and  _51
REMARK   18  A    between atoms: _51  and  _52
REMARK   19  A    between atoms: _57  and  _59
REMARK   20  A    between atoms: _59  and  _60
REMARK   21  A    between atoms: _59  and  _62
REMARK   22  A    between atoms: _62  and  _63
REMARK   23  A    between atoms: _68  and  _70
REMARK   24  A    between atoms: _70  and  _71
REMARK   25  A    between atoms: _70  and  _73
REMARK   26  A    between atoms: _73  and  _74
REMARK   27  A    between atoms: _79  and  _81
REMARK   28  A    between atoms: _81  and  _82
REMARK   29  A    between atoms: _81  and  _84
REMARK   30  A    between atoms: _84  and  _85
REMARK   31  A    between atoms: _88  and  _90
REMARK   32  A    between atoms: _90  and  _91
REMARK   33  A    between atoms: _90  and  _93
REMARK   34  A    between atoms: _93  and  _94
REMARK   35  A    between atoms: _94  and  _95
REMARK   36  A    between atoms: _100  and  _102
REMARK   37  A    between atoms: _102  and  _103
REMARK   38  A    between atoms: _102  and  _105
REMARK   39  A    between atoms: _105  and  _106
REMARK   40  A    between atoms: _112  and  _114
REMARK   41  A    between atoms: _125  and  _128
REMARK   42  A    between atoms: _128  and  _129
REMARK   43  A    between atoms: _137  and  _138
REMARK   44  A    between atoms: _146  and  _148
REMARK   45  A    between atoms: _148  and  _149
REMARK   46  A    between atoms: _148  and  _151
REMARK   47  A    between atoms: _151  and  _152
REMARK   48  A    between atoms: _152  and  _153
REMARK   49  A    between atoms: _156  and  _158
REMARK   50  A    between atoms: _158  and  _159
REMARK   51  A    between atoms: _158  and  _161
REMARK   52  A    between atoms: _161  and  _162
REMARK   53  A    between atoms: _167  and  _169
REMARK   54  A    between atoms: _169  and  _170
REMARK   55  A    between atoms: _169  and  _172
REMARK   56  A    between atoms: _172  and  _173
REMARK   57  A    between atoms: _173  and  _174
REMARK   58  A    between atoms: _177  and  _179
REMARK   59  A    between atoms: _179  and  _180
REMARK   60  A    between atoms: _179  and  _182
REMARK   61  A    between atoms: _182  and  _183
REMARK   62  A    between atoms: _186  and  _188
REMARK   63  A    between atoms: _188  and  _189
REMARK   64  A    between atoms: _188  and  _191
REMARK   65  A    between atoms: _191  and  _192
REMARK   66  A    between atoms: _193  and  ZN_413
REMARK   67  A    between atoms: _197  and  _199
REMARK   68  A    between atoms: _199  and  _200
REMARK   69  A    between atoms: _199  and  _202
REMARK   70  A    between atoms: _202  and  _203
REMARK   71  A    between atoms: _206  and  _208
REMARK   72  A    between atoms: _208  and  _209
REMARK   73  A    between atoms: _208  and  _211
REMARK   74  A    between atoms: _214  and  _216
REMARK   75  A    between atoms: _216  and  _217
REMARK   76  A    between atoms: _216  and  _219
REMARK   77  A    between atoms: _219  and  _220
REMARK   78  A    between atoms: _225  and  _227
REMARK   79  A    between atoms: _227  and  _228
REMARK   80  A    between atoms: _227  and  _230
REMARK   81  A    between atoms: _230  and  _231
REMARK   82  A    between atoms: _237  and  _239
REMARK   83  A    between atoms: _239  and  _240
REMARK   84  A    between atoms: _239  and  _242
REMARK   85  A    between atoms: _245  and  _247
REMARK   86  A    between atoms: _247  and  _248
REMARK   87  A    between atoms: _247  and  _250
REMARK   88  A    between atoms: _250  and  _251
REMARK   89  A    between atoms: _254  and  _256
REMARK   90  A    between atoms: _256  and  _257
REMARK   91  A    between atoms: _260  and  _262
REMARK   92  A    between atoms: _262  and  _263
REMARK   93  A    between atoms: _262  and  _265
REMARK   94  A    between atoms: _268  and  _270
REMARK   95  A    between atoms: _270  and  _271
REMARK   96  A    between atoms: _270  and  _273
REMARK   97  A    between atoms: _273  and  _274
REMARK   98  A    between atoms: _277  and  _279
REMARK   99  A    between atoms: _279  and  _280
REMARK  100  A    between atoms: _282  and  _284
REMARK  101  A    between atoms: _284  and  _285
REMARK  102  A    between atoms: _287  and  _289
REMARK  103  A    between atoms: _289  and  _290
REMARK  104  A    between atoms: _289  and  _292
REMARK  105  A    between atoms: _292  and  _293
REMARK  106  A    between atoms: _295  and  _297
REMARK  107  A    between atoms: _297  and  _298
REMARK  108  A    between atoms: _297  and  _300
REMARK  109  A    between atoms: _300  and  _301
REMARK  110  A    between atoms: _304  and  _306
REMARK  111  A    between atoms: _306  and  _307
REMARK  112  A    between atoms: _306  and  _309
REMARK  113  A    between atoms: _309  and  _310
REMARK  114  A    between atoms: _313  and  _315
REMARK  115  A    between atoms: _315  and  _316
REMARK  116  A    between atoms: _315  and  _318
REMARK  117  A    between atoms: _318  and  _319
REMARK  118  A    between atoms: _323  and  _324
REMARK  119  A    between atoms: _330  and  _331
REMARK  120  A    between atoms: _336  and  _338
REMARK  121  A    between atoms: _338  and  _339
REMARK  122  A    between atoms: _338  and  _341
REMARK  123  A    between atoms: _341  and  _342
REMARK  124  A    between atoms: _345  and  _347
REMARK  125  A    between atoms: _347  and  _348
REMARK  126  A    between atoms: _347  and  _350
REMARK  127  A    between atoms: _350  and  _351
REMARK  128  A    between atoms: _354  and  _356
REMARK  129  A    between atoms: _356  and  _357
REMARK  130  A    between atoms: _356  and  _359
REMARK  131  A    between atoms: _361  and  _363
REMARK  132  A    between atoms: _363  and  _364
REMARK  133  A    between atoms: _363  and  _366
REMARK  134  A    between atoms: _369  and  _371
REMARK  135  A    between atoms: _371  and  _372
REMARK  136  A    between atoms: _371  and  _374
REMARK  137  A    between atoms: _374  and  _375
REMARK  138  A    between atoms: _385  and  _387
REMARK  139  A    between atoms: _387  and  _388
REMARK  140  A    between atoms: _387  and  _390
REMARK  141  A    between atoms: _390  and  _391
REMARK  142  A    between atoms: _396  and  _398
REMARK  143  A    between atoms: _398  and  _399
REMARK  144  A    between atoms: _398  and  _401
REMARK  145  A    between atoms: _401  and  _402
REMARK  146  A    between atoms: _402  and  _403
REMARK  147  A    between atoms: _403  and  _404
REMARK                            x       y       z     vdW  Elec       q    Type
REMARK                         _______ _______ _______ _____ _____    ______ ____
ROOT
ATOM      1  C   CYS A   1      -5.834   7.478  23.884  0.00  0.00    +0.239 C 
ATOM      2  N   VAL A   2      -6.007   6.186  24.211  0.00  0.00    -0.298 N 
ATOM      3  H   VAL A   2      -5.252   5.678  24.715  0.00  0.00    +0.150 HD
ATOM      4  O   CYS A   1      -6.740   8.189  23.443  0.00  0.00    -0.274 OA
ENDROOT
BRANCH   1   5
ATOM      5  CA  CYS A   1      -4.445   8.066  24.065  0.00  0.00    +0.156 C 
BRANCH   5   6
ATOM      6  N   CYS A   1      -3.400   7.055  24.282  0.00  0.00    -0.237 NA
ATOM      7  H   CYS A   1      -3.352   6.242  23.636  0.00  0.00    +0.142 HD
ENDBRANCH   5   6
BRANCH   5   8
ATOM      8  CB  CYS A   1      -4.092   8.884  22.822  0.00  0.00    +0.095 C 
ATOM      9  SG  CYS A   1      -4.109   7.926  21.279  0.00  0.00    -0.080 S 
ENDBRANCH   5   8
ENDBRANCH   1   5
BRANCH   2  10
ATOM     10  CA  VAL A   2      -7.259   5.476  23.863  0.00  0.00    +0.137 C 
BRANCH  10  11
ATOM     11  CB  VAL A   2      -6.987   4.252  22.973  0.00  0.00    +0.026 C 
ATOM     12  CG2 VAL A   2      -8.324   3.570  22.547  0.00  0.00    +0.002 C 
ATOM     13  CG1 VAL A   2      -6.157   4.665  21.738  0.00  0.00    +0.002 C 
ENDBRANCH  10  11
BRANCH  10  14
ATOM     14  C   VAL A   2      -8.033   5.009  25.070  0.00  0.00    +0.227 C 
ATOM     15  O   VAL A   2      -7.475   4.348  25.945  0.00  0.00    -0.286 OA
ENDBRANCH  10  14
ENDBRANCH   2  10
TORSDOF 6
REMARK  Name = ../refined-set-2016/3igp/3igp_pocket.pdb
REMARK  147 active torsions:
REMARK  status: ('A' for Active; 'I' for Inactive)
REMARK    1  A    between atoms: _1  and  _3
REMARK    2  A    between atoms: _3  and  _4
REMARK    3  A    between atoms: _3  and  _6
REMARK    4  A    between atoms: _6  and  _7
REMARK    5  A    between atoms: _17  and  _19
REMARK    6  A    between atoms: _19  and  _20
REMARK    7  A    between atoms: _19  and  _22
REMARK    8  A    between atoms: _22  and  _23
REMARK    9  A    between atoms: _28  and  _29
REMARK   10  A    between atoms: _31  and  _33
REMARK   11  A    between atoms: _33  and  _34
REMARK   12  A    between atoms: _33  and  _36
REMARK   13  A    between atoms: _36  and  _37
REMARK   14  A    between atoms: _40  and  _41
REMARK   15  A    between atoms: _46  and  _48
REMARK   16  A    between atoms: _48  and  _49
REMARK   17  A    between atoms: _48  and  _51
REMARK   18  A    between atoms: _51  and  _52
REMARK   19  A    between atoms: _57  and  _59
REMARK   20  A    between atoms: _59  and  _60
REMARK   21  A    between atoms: _59  and  _62
REMARK   22  A    between atoms: _62  and  _63
REMARK   23  A    between atoms: _68  and  _70
REMARK   24  A    between atoms: _70  and  _71
REMARK   25  A    between atoms: _70  and  _73
REMARK   26  A    between atoms: _73  and  _74
REMARK   27  A    between atoms: _79  and  _81
REMARK   28  A    between atoms: _81  and  _82
REMARK   29  A    between atoms: _81  and  _84
REMARK   30  A    between atoms: _84  and  _85
REMARK   31  A    between atoms: _88  and  _90
REMARK   32  A    between atoms: _90  and  _91
REMARK   33  A    between atoms: _90  and  _93
REMARK   34  A    between atoms: _93  and  _94
REMARK   35  A    between atoms: _94  and  _95
REMARK   36  A    between atoms: _100  and  _102
REMARK   37  A    between atoms: _102  and  _103
REMARK   38  A    between atoms: _102  and  _105
REMARK   39  A    between atoms: _105  and  _106
REMARK   40  A    between atoms: _112  and  _114
REMARK   41  A    between atoms: _125  and  _128
REMARK   42  A    between atoms: _128  and  _129
REMARK   43  A    between atoms: _137  and  _138
REMARK   44  A    between atoms: _146  and  _148
REMARK   45  A    between atoms: _148  and  _149
REMARK   46  A    between atoms: _148  and  _151
REMARK   47  A    between atoms: _151  and  _152
REMARK   48  A    between atoms: _152  and  _153
REMARK   49  A    between atoms: _156  and  _158
REMARK   50  A    between atoms: _158  and  _159
REMARK   51  A    between atoms: _158  and  _161
REMARK   52  A    between atoms: _161  and  _162
REMARK   53  A    between atoms: _167  and  _169
REMARK   54  A    between atoms: _169  and  _170
REMARK   55  A    between atoms: _169  and  _172
REMARK   56  A    between atoms: _172  and  _173
REMARK   57  A    between atoms: _173  and  _174
REMARK   58  A    between atoms: _177  and  _179
REMARK   59  A    between atoms: _179  and  _180
REMARK   60  A    between atoms: _179  and  _182
REMARK   61  A    between atoms: _182  and  _183
REMARK   62  A    between atoms: _186  and  _188
REMARK   63  A    between atoms: _188  and  _189
REMARK   64  A    between atoms: _188  and  _191
REMARK   65  A    between atoms: _191  and  _192
REMARK   66  A    between atoms: _193  and  ZN_413
REMARK   67  A    between atoms: _197  and  _199
REMARK   68  A    between atoms: _199  and  _200
REMARK   69  A    between atoms: _199  and  _202
REMARK   70  A    between atoms: _202  and  _203
REMARK   71  A    between atoms: _206  and  _208
REMARK   72  A    between atoms: _208  and  _209
REMARK   73  A    between atoms: _208  and  _211
REMARK   74  A    between atoms: _214  and  _216
REMARK   75  A    between atoms: _216  and  _217
REMARK   76  A    between atoms: _216  and  _219
REMARK   77  A    between atoms: _219  and  _220
REMARK   78  A    between atoms: _225  and  _227
REMARK   79  A    between atoms: _227  and  _228
REMARK   80  A    between atoms: _227  and  _230
REMARK   81  A    between atoms: _230  and  _231
REMARK   82  A    between atoms: _237  and  _239
REMARK   83  A    between atoms: _239  and  _240
REMARK   84  A    between atoms: _239  and  _242
REMARK   85  A    between atoms: _245  and  _247
REMARK   86  A    between atoms: _247  and  _248
REMARK   87  A    between atoms: _247  and  _250
REMARK   88  A    between atoms: _250  and  _251
REMARK   89  A    between atoms: _254  and  _256
REMARK   90  A    between atoms: _256  and  _257
REMARK   91  A    between atoms: _260  and  _262
REMARK   92  A    between atoms: _262  and  _263
REMARK   93  A    between atoms: _262  and  _265
REMARK   94  A    between atoms: _268  and  _270
REMARK   95  A    between atoms: _270  and  _271
REMARK   96  A    between atoms: _270  and  _273
REMARK   97  A    between atoms: _273  and  _274
REMARK   98  A    between atoms: _277  and  _279
REMARK   99  A    between atoms: _279  and  _280
REMARK  100  A    between atoms: _282  and  _284
REMARK  101  A    between atoms: _284  and  _285
REMARK  102  A    between atoms: _287  and  _289
REMARK  103  A    between atoms: _289  and  _290
REMARK  104  A    between atoms: _289  and  _292
REMARK  105  A    between atoms: _292  and  _293
REMARK  106  A    between atoms: _295  and  _297
REMARK  107  A    between atoms: _297  and  _298
REMARK  108  A    between atoms: _297  and  _300
REMARK  109  A    between atoms: _300  and  _301
REMARK  110  A    between atoms: _304  and  _306
REMARK  111  A    between atoms: _306  and  _307
REMARK  112  A    between atoms: _306  and  _309
REMARK  113  A    between atoms: _309  and  _310
REMARK  114  A    between atoms: _313  and  _315
REMARK  115  A    between atoms: _315  and  _316
REMARK  116  A    between atoms: _315  and  _318
REMARK  117  A    between atoms: _318  and  _319
REMARK  118  A    between atoms: _323  and  _324
REMARK  119  A    between atoms: _330  and  _331
REMARK  120  A    between atoms: _336  and  _338
REMARK  121  A    between atoms: _338  and  _339
REMARK  122  A    between atoms: _338  and  _341
REMARK  123  A    between atoms: _341  and  _342
REMARK  124  A    between atoms: _345  and  _347
REMARK  125  A    between atoms: _347  and  _348
REMARK  126  A    between atoms: _347  and  _350
REMARK  127  A    between atoms: _350  and  _351
REMARK  128  A    between atoms: _354  and  _356
REMARK  129  A    between atoms: _356  and  _357
REMARK  130  A    between atoms: _356  and  _359
REMARK  131  A    between atoms: _361  and  _363
REMARK  132  A    between atoms: _363  and  _364
REMARK  133  A    between atoms: _363  and  _366
REMARK  134  A    between atoms: _369  and  _371
REMARK  135  A    between atoms: _371  and  _372
REMARK  136  A    between atoms: _371  and  _374
REMARK  137  A    between atoms: _374  and  _375
REMARK  138  A    between atoms: _385  and  _387
REMARK  139  A    between atoms: _387  and  _388
REMARK  140  A    between atoms: _387  and  _390
REMARK  141  A    between atoms: _390  and  _391
REMARK  142  A    between atoms: _396  and  _398
REMARK  143  A    between atoms: _398  and  _399
REMARK  144  A    between atoms: _398  and  _401
REMARK  145  A    between atoms: _401  and  _402
REMARK  146  A    between atoms: _402  and  _403
REMARK  147  A    between atoms: _403  and  _404
REMARK                            x       y       z     vdW  Elec       q    Type
REMARK                         _______ _______ _______ _____ _____    ______ ____
ROOT
ATOM      1  CG  TRP A   1      -8.698   0.043  24.091  0.00  0.00    -0.002 A 
ATOM      2  CD1 TRP A   1      -7.482   0.635  24.264  0.00  0.00    +0.068 A 
ATOM      3  NE1 TRP A   1      -6.778   0.619  23.070  0.00  0.00    -0.352 N 
ATOM      4  HE1 TRP A   1      -5.825   1.007  22.922  0.00  0.00    +0.166 HD
ATOM      5  CE2 TRP A   1      -7.548   0.006  22.117  0.00  0.00    +0.056 A 
ATOM      6  CZ2 TRP A   1      -7.275  -0.290  20.789  0.00  0.00    +0.017 A 
ATOM      7  CH2 TRP A   1      -8.252  -0.923  20.071  0.00  0.00    +0.001 A 
ATOM      8  CZ3 TRP A   1      -9.463  -1.287  20.639  0.00  0.00    +0.000 A 
ATOM      9  CE3 TRP A   1      -9.742  -1.009  21.946  0.00  0.00    +0.001 A 
ATOM     10  CD2 TRP A   1      -8.767  -0.353  22.720  0.00  0.00    +0.013 A 
ENDROOT
BRANCH   1  11
ATOM     11  CB  TRP A   1      -9.788  -0.089  25.074  0.00  0.00    +0.053 C 
BRANCH  11  12
ATOM     12  CA  TRP A   1     -10.828   1.032  24.898  0.00  0.00    +0.137 C 
BRANCH  12  13
ATOM     13  N   TRP A   1     -10.411   2.229  25.595  0.00  0.00    -0.239 NA
ATOM     14  H   TRP A   1      -9.832   2.136  26.454  0.00  0.00    +0.142 HD
ENDBRANCH  12  13
BRANCH  12  15
ATOM     15  C   TRP A   1     -12.165   0.584  25.409  0.00  0.00    +0.224 C 
ATOM     16  O   TRP A   1     -12.379   0.513  26.604  0.00  0.00    -0.287 OA
ENDBRANCH  12  15
ENDBRANCH  11  12
ENDBRANCH   1  11
TORSDOF 4
REMARK  Name = ../refined-set-2016/3igp/3igp_pocket.pdb
REMARK  147 active torsions:
REMARK  status: ('A' for Active; 'I' for Inactive)
REMARK    1  A    between atoms: _1  and  _3
REMARK    2  A    between atoms: _3  and  _4
REMARK    3  A    between atoms: _3  and  _6
REMARK    4  A    between atoms: _6  and  _7
REMARK    5  A    between atoms: _17  and  _19
REMARK    6  A    between atoms: _19  and  _20
REMARK    7  A    between atoms: _19  and  _22
REMARK    8  A    between atoms: _22  and  _23
REMARK    9  A    between atoms: _28  and  _29
REMARK   10  A    between atoms: _31  and  _33
REMARK   11  A    between atoms: _33  and  _34
REMARK   12  A    between atoms: _33  and  _36
REMARK   13  A    between atoms: _36  and  _37
REMARK   14  A    between atoms: _40  and  _41
REMARK   15  A    between atoms: _46  and  _48
REMARK   16  A    between atoms: _48  and  _49
REMARK   17  A    between atoms: _48  and  _51
REMARK   18  A    between atoms: _51  and  _52
REMARK   19  A    between atoms: _57  and  _59
REMARK   20  A    between atoms: _59  and  _60
REMARK   21  A    between atoms: _59  and  _62
REMARK   22  A    between atoms: _62  and  _63
REMARK   23  A    between atoms: _68  and  _70
REMARK   24  A    between atoms: _70  and  _71
REMARK   25  A    between atoms: _70  and  _73
REMARK   26  A    between atoms: _73  and  _74
REMARK   27  A    between atoms: _79  and  _81
REMARK   28  A    between atoms: _81  and  _82
REMARK   29  A    between atoms: _81  and  _84
REMARK   30  A    between atoms: _84  and  _85
REMARK   31  A    between atoms: _88  and  _90
REMARK   32  A    between atoms: _90  and  _91
REMARK   33  A    between atoms: _90  and  _93
REMARK   34  A    between atoms: _93  and  _94
REMARK   35  A    between atoms: _94  and  _95
REMARK   36  A    between atoms: _100  and  _102
REMARK   37  A    between atoms: _102  and  _103
REMARK   38  A    between atoms: _102  and  _105
REMARK   39  A    between atoms: _105  and  _106
REMARK   40  A    between atoms: _112  and  _114
REMARK   41  A    between atoms: _125  and  _128
REMARK   42  A    between atoms: _128  and  _129
REMARK   43  A    between atoms: _137  and  _138
REMARK   44  A    between atoms: _146  and  _148
REMARK   45  A    between atoms: _148  and  _149
REMARK   46  A    between atoms: _148  and  _151
REMARK   47  A    between atoms: _151  and  _152
REMARK   48  A    between atoms: _152  and  _153
REMARK   49  A    between atoms: _156  and  _158
REMARK   50  A    between atoms: _158  and  _159
REMARK   51  A    between atoms: _158  and  _161
REMARK   52  A    between atoms: _161  and  _162
REMARK   53  A    between atoms: _167  and  _169
REMARK   54  A    between atoms: _169  and  _170
REMARK   55  A    between atoms: _169  and  _172
REMARK   56  A    between atoms: _172  and  _173
REMARK   57  A    between atoms: _173  and  _174
REMARK   58  A    between atoms: _177  and  _179
REMARK   59  A    between atoms: _179  and  _180
REMARK   60  A    between atoms: _179  and  _182
REMARK   61  A    between atoms: _182  and  _183
REMARK   62  A    between atoms: _186  and  _188
REMARK   63  A    between atoms: _188  and  _189
REMARK   64  A    between atoms: _188  and  _191
REMARK   65  A    between atoms: _191  and  _192
REMARK   66  A    between atoms: _193  and  ZN_413
REMARK   67  A    between atoms: _197  and  _199
REMARK   68  A    between atoms: _199  and  _200
REMARK   69  A    between atoms: _199  and  _202
REMARK   70  A    between atoms: _202  and  _203
REMARK   71  A    between atoms: _206  and  _208
REMARK   72  A    between atoms: _208  and  _209
REMARK   73  A    between atoms: _208  and  _211
REMARK   74  A    between atoms: _214  and  _216
REMARK   75  A    between atoms: _216  and  _217
REMARK   76  A    between atoms: _216  and  _219
REMARK   77  A    between atoms: _219  and  _220
REMARK   78  A    between atoms: _225  and  _227
REMARK   79  A    between atoms: _227  and  _228
REMARK   80  A    between atoms: _227  and  _230
REMARK   81  A    between atoms: _230  and  _231
REMARK   82  A    between atoms: _237  and  _239
REMARK   83  A    between atoms: _239  and  _240
REMARK   84  A    between atoms: _239  and  _242
REMARK   85  A    between atoms: _245  and  _247
REMARK   86  A    between atoms: _247  and  _248
REMARK   87  A    between atoms: _247  and  _250
REMARK   88  A    between atoms: _250  and  _251
REMARK   89  A    between atoms: _254  and  _256
REMARK   90  A    between atoms: _256  and  _257
REMARK   91  A    between atoms: _260  and  _262
REMARK   92  A    between atoms: _262  and  _263
REMARK   93  A    between atoms: _262  and  _265
REMARK   94  A    between atoms: _268  and  _270
REMARK   95  A    between atoms: _270  and  _271
REMARK   96  A    between atoms: _270  and  _273
REMARK   97  A    between atoms: _273  and  _274
REMARK   98  A    between atoms: _277  and  _279
REMARK   99  A    between atoms: _279  and  _280
REMARK  100  A    between atoms: _282  and  _284
REMARK  101  A    between atoms: _284  and  _285
REMARK  102  A    between atoms: _287  and  _289
REMARK  103  A    between atoms: _289  and  _290
REMARK  104  A    between atoms: _289  and  _292
REMARK  105  A    between atoms: _292  and  _293
REMARK  106  A    between atoms: _295  and  _297
REMARK  107  A    between atoms: _297  and  _298
REMARK  108  A    between atoms: _297  and  _300
REMARK  109  A    between atoms: _300  and  _301
REMARK  110  A    between atoms: _304  and  _306
REMARK  111  A    between atoms: _306  and  _307
REMARK  112  A    between atoms: _306  and  _309
REMARK  113  A    between atoms: _309  and  _310
REMARK  114  A    between atoms: _313  and  _315
REMARK  115  A    between atoms: _315  and  _316
REMARK  116  A    between atoms: _315  and  _318
REMARK  117  A    between atoms: _318  and  _319
REMARK  118  A    between atoms: _323  and  _324
REMARK  119  A    between atoms: _330  and  _331
REMARK  120  A    between atoms: _336  and  _338
REMARK  121  A    between atoms: _338  and  _339
REMARK  122  A    between atoms: _338  and  _341
REMARK  123  A    between atoms: _341  and  _342
REMARK  124  A    between atoms: _345  and  _347
REMARK  125  A    between atoms: _347  and  _348
REMARK  126  A    between atoms: _347  and  _350
REMARK  127  A    between atoms: _350  and  _351
REMARK  128  A    between atoms: _354  and  _356
REMARK  129  A    between atoms: _356  and  _357
REMARK  130  A    between atoms: _356  and  _359
REMARK  131  A    between atoms: _361  and  _363
REMARK  132  A    between atoms: _363  and  _364
REMARK  133  A    between atoms: _363  and  _366
REMARK  134  A    between atoms: _369  and  _371
REMARK  135  A    between atoms: _371  and  _372
REMARK  136  A    between atoms: _371  and  _374
REMARK  137  A    between atoms: _374  and  _375
REMARK  138  A    between atoms: _385  and  _387
REMARK  139  A    between atoms: _387  and  _388
REMARK  140  A    between atoms: _387  and  _390
REMARK  141  A    between atoms: _390  and  _391
REMARK  142  A    between atoms: _396  and  _398
REMARK  143  A    between atoms: _398  and  _399
REMARK  144  A    between atoms: _398  and  _401
REMARK  145  A    between atoms: _401  and  _402
REMARK  146  A    between atoms: _402  and  _403
REMARK  147  A    between atoms: _403  and  _404
REMARK                            x       y       z     vdW  Elec       q    Type
REMARK                         _______ _______ _______ _____ _____    ______ ____
ROOT
ATOM      1  CB  ASN A   1      -2.001  -7.321  10.394  0.00  0.00    +0.110 C 
ENDROOT
BRANCH   1   2
ATOM      2  CG  ASN A   1      -3.493  -7.456  10.150  0.00  0.00    +0.221 C 
ATOM      3  OD1 ASN A   1      -4.175  -8.260  10.781  0.00  0.00    -0.275 OA
ATOM      4  ND2 ASN A   1      -4.013  -6.655   9.205  0.00  0.00    -0.329 N 
ATOM      5 HD21 ASN A   1      -5.028  -6.702   8.985  0.00  0.00    +0.145 HD
ATOM      6 HD22 ASN A   1      -3.400  -5.988   8.694  0.00  0.00    +0.145 HD
ENDBRANCH   1   2
BRANCH   1   7
ATOM      7  CA  ASN A   1      -1.498  -8.166  11.562  0.00  0.00    +0.142 C 
BRANCH   7   8
ATOM      8  N   ASN A   1      -1.781  -9.577  11.345  0.00  0.00    -0.239 NA
ATOM      9  H   ASN A   1      -2.697  -9.843  10.930  0.00  0.00    +0.142 HD
ENDBRANCH   7   8
BRANCH   7  10
ATOM     10  C   ASN A   1      -2.090  -7.705  12.899  0.00  0.00    +0.225 C 
ATOM     11  O   ASN A   1      -2.815  -6.691  12.957  0.00  0.00    -0.287 OA
ENDBRANCH   7  10
ENDBRANCH   1   7
TORSDOF 4
REMARK  Name = ../refined-set-2016/3igp/3igp_pocket.pdb
REMARK  147 active torsions:
REMARK  status: ('A' for Active; 'I' for Inactive)
REMARK    1  A    between atoms: _1  and  _3
REMARK    2  A    between atoms: _3  and  _4
REMARK    3  A    between atoms: _3  and  _6
REMARK    4  A    between atoms: _6  and  _7
REMARK    5  A    between atoms: _17  and  _19
REMARK    6  A    between atoms: _19  and  _20
REMARK    7  A    between atoms: _19  and  _22
REMARK    8  A    between atoms: _22  and  _23
REMARK    9  A    between atoms: _28  and  _29
REMARK   10  A    between atoms: _31  and  _33
REMARK   11  A    between atoms: _33  and  _34
REMARK   12  A    between atoms: _33  and  _36
REMARK   13  A    between atoms: _36  and  _37
REMARK   14  A    between atoms: _40  and  _41
REMARK   15  A    between atoms: _46  and  _48
REMARK   16  A    between atoms: _48  and  _49
REMARK   17  A    between atoms: _48  and  _51
REMARK   18  A    between atoms: _51  and  _52
REMARK   19  A    between atoms: _57  and  _59
REMARK   20  A    between atoms: _59  and  _60
REMARK   21  A    between atoms: _59  and  _62
REMARK   22  A    between atoms: _62  and  _63
REMARK   23  A    between atoms: _68  and  _70
REMARK   24  A    between atoms: _70  and  _71
REMARK   25  A    between atoms: _70  and  _73
REMARK   26  A    between atoms: _73  and  _74
REMARK   27  A    between atoms: _79  and  _81
REMARK   28  A    between atoms: _81  and  _82
REMARK   29  A    between atoms: _81  and  _84
REMARK   30  A    between atoms: _84  and  _85
REMARK   31  A    between atoms: _88  and  _90
REMARK   32  A    between atoms: _90  and  _91
REMARK   33  A    between atoms: _90  and  _93
REMARK   34  A    between atoms: _93  and  _94
REMARK   35  A    between atoms: _94  and  _95
REMARK   36  A    between atoms: _100  and  _102
REMARK   37  A    between atoms: _102  and  _103
REMARK   38  A    between atoms: _102  and  _105
REMARK   39  A    between atoms: _105  and  _106
REMARK   40  A    between atoms: _112  and  _114
REMARK   41  A    between atoms: _125  and  _128
REMARK   42  A    between atoms: _128  and  _129
REMARK   43  A    between atoms: _137  and  _138
REMARK   44  A    between atoms: _146  and  _148
REMARK   45  A    between atoms: _148  and  _149
REMARK   46  A    between atoms: _148  and  _151
REMARK   47  A    between atoms: _151  and  _152
REMARK   48  A    between atoms: _152  and  _153
REMARK   49  A    between atoms: _156  and  _158
REMARK   50  A    between atoms: _158  and  _159
REMARK   51  A    between atoms: _158  and  _161
REMARK   52  A    between atoms: _161  and  _162
REMARK   53  A    between atoms: _167  and  _169
REMARK   54  A    between atoms: _169  and  _170
REMARK   55  A    between atoms: _169  and  _172
REMARK   56  A    between atoms: _172  and  _173
REMARK   57  A    between atoms: _173  and  _174
REMARK   58  A    between atoms: _177  and  _179
REMARK   59  A    between atoms: _179  and  _180
REMARK   60  A    between atoms: _179  and  _182
REMARK   61  A    between atoms: _182  and  _183
REMARK   62  A    between atoms: _186  and  _188
REMARK   63  A    between atoms: _188  and  _189
REMARK   64  A    between atoms: _188  and  _191
REMARK   65  A    between atoms: _191  and  _192
REMARK   66  A    between atoms: _193  and  ZN_413
REMARK   67  A    between atoms: _197  and  _199
REMARK   68  A    between atoms: _199  and  _200
REMARK   69  A    between atoms: _199  and  _202
REMARK   70  A    between atoms: _202  and  _203
REMARK   71  A    between atoms: _206  and  _208
REMARK   72  A    between atoms: _208  and  _209
REMARK   73  A    between atoms: _208  and  _211
REMARK   74  A    between atoms: _214  and  _216
REMARK   75  A    between atoms: _216  and  _217
REMARK   76  A    between atoms: _216  and  _219
REMARK   77  A    between atoms: _219  and  _220
REMARK   78  A    between atoms: _225  and  _227
REMARK   79  A    between atoms: _227  and  _228
REMARK   80  A    between atoms: _227  and  _230
REMARK   81  A    between atoms: _230  and  _231
REMARK   82  A    between atoms: _237  and  _239
REMARK   83  A    between atoms: _239  and  _240
REMARK   84  A    between atoms: _239  and  _242
REMARK   85  A    between atoms: _245  and  _247
REMARK   86  A    between atoms: _247  and  _248
REMARK   87  A    between atoms: _247  and  _250
REMARK   88  A    between atoms: _250  and  _251
REMARK   89  A    between atoms: _254  and  _256
REMARK   90  A    between atoms: _256  and  _257
REMARK   91  A    between atoms: _260  and  _262
REMARK   92  A    between atoms: _262  and  _263
REMARK   93  A    between atoms: _262  and  _265
REMARK   94  A    between atoms: _268  and  _270
REMARK   95  A    between atoms: _270  and  _271
REMARK   96  A    between atoms: _270  and  _273
REMARK   97  A    between atoms: _273  and  _274
REMARK   98  A    between atoms: _277  and  _279
REMARK   99  A    between atoms: _279  and  _280
REMARK  100  A    between atoms: _282  and  _284
REMARK  101  A    between atoms: _284  and  _285
REMARK  102  A    between atoms: _287  and  _289
REMARK  103  A    between atoms: _289  and  _290
REMARK  104  A    between atoms: _289  and  _292
REMARK  105  A    between atoms: _292  and  _293
REMARK  106  A    between atoms: _295  and  _297
REMARK  107  A    between atoms: _297  and  _298
REMARK  108  A    between atoms: _297  and  _300
REMARK  109  A    between atoms: _300  and  _301
REMARK  110  A    between atoms: _304  and  _306
REMARK  111  A    between atoms: _306  and  _307
REMARK  112  A    between atoms: _306  and  _309
REMARK  113  A    between atoms: _309  and  _310
REMARK  114  A    between atoms: _313  and  _315
REMARK  115  A    between atoms: _315  and  _316
REMARK  116  A    between atoms: _315  and  _318
REMARK  117  A    between atoms: _318  and  _319
REMARK  118  A    between atoms: _323  and  _324
REMARK  119  A    between atoms: _330  and  _331
REMARK  120  A    between atoms: _336  and  _338
REMARK  121  A    between atoms: _338  and  _339
REMARK  122  A    between atoms: _338  and  _341
REMARK  123  A    between atoms: _341  and  _342
REMARK  124  A    between atoms: _345  and  _347
REMARK  125  A    between atoms: _347  and  _348
REMARK  126  A    between atoms: _347  and  _350
REMARK  127  A    between atoms: _350  and  _351
REMARK  128  A    between atoms: _354  and  _356
REMARK  129  A    between atoms: _356  and  _357
REMARK  130  A    between atoms: _356  and  _359
REMARK  131  A    between atoms: _361  and  _363
REMARK  132  A    between atoms: _363  and  _364
REMARK  133  A    between atoms: _363  and  _366
REMARK  134  A    between atoms: _369  and  _371
REMARK  135  A    between atoms: _371  and  _372
REMARK  136  A    between atoms: _371  and  _374
REMARK  137  A    between atoms: _374  and  _375
REMARK  138  A    between atoms: _385  and  _387
REMARK  139  A    between atoms: _387  and  _388
REMARK  140  A    between atoms: _387  and  _390
REMARK  141  A    between atoms: _390  and  _391
REMARK  142  A    between atoms: _396  and  _398
REMARK  143  A    between atoms: _398  and  _399
REMARK  144  A    between atoms: _398  and  _401
REMARK  145  A    between atoms: _401  and  _402
REMARK  146  A    between atoms: _402  and  _403
REMARK  147  A    between atoms: _403  and  _404
REMARK                            x       y       z     vdW  Elec       q    Type
REMARK                         _______ _______ _______ _____ _____    ______ ____
ROOT
ATOM      1  NE  ARG A   1       2.224  -3.788  21.154  0.00  0.00    -0.265 N 
ATOM      2  CZ  ARG A   1       2.402  -2.785  22.007  0.00  0.00    +0.342 C 
ATOM      3  NH2 ARG A   1       3.619  -2.555  22.476  0.00  0.00    -0.292 N 
ATOM      4 HH21 ARG A   1       3.780  -1.775  23.145  0.00  0.00    +0.255 HD
ATOM      5 HH22 ARG A   1       4.414  -3.155  22.176  0.00  0.00    +0.255 HD
ATOM      6  NH1 ARG A   1       1.376  -2.010  22.368  0.00  0.00    -0.292 N 
ATOM      7 HH11 ARG A   1       1.525  -1.227  23.036  0.00  0.00    +0.255 HD
ATOM      8 HH12 ARG A   1       0.428  -2.189  21.981  0.00  0.00    +0.255 HD
ATOM      9  HE  ARG A   1       3.049  -4.378  20.926  0.00  0.00    +0.259 HD
ENDROOT
BRANCH   1  10
ATOM     10  CD  ARG A   1       0.954  -4.124  20.512  0.00  0.00    +0.174 C 
BRANCH  10  11
ATOM     11  CG  ARG A   1       1.038  -5.472  19.790  0.00  0.00    +0.045 C 
BRANCH  11  12
ATOM     12  CB  ARG A   1      -0.067  -5.694  18.805  0.00  0.00    +0.029 C 
BRANCH  12  13
ATOM     13  CA  ARG A   1      -0.153  -7.148  18.307  0.00  0.00    +0.133 C 
BRANCH  13  14
ATOM     14  N   ARG A   1      -1.095  -7.225  17.204  0.00  0.00    -0.239 NA
ATOM     15  H   ARG A   1      -1.872  -6.535  17.155  0.00  0.00    +0.142 HD
ENDBRANCH  13  14
BRANCH  13  16
ATOM     16  C   ARG A   1      -0.677  -8.040  19.433  0.00  0.00    +0.224 C 
ATOM     17  O   ARG A   1      -1.891  -8.070  19.711  0.00  0.00    -0.287 OA
ENDBRANCH  13  16
ENDBRANCH  12  13
ENDBRANCH  11  12
ENDBRANCH  10  11
ENDBRANCH   1  10
TORSDOF 6
REMARK  Name = ../refined-set-2016/3igp/3igp_pocket.pdb
REMARK  147 active torsions:
REMARK  status: ('A' for Active; 'I' for Inactive)
REMARK    1  A    between atoms: _1  and  _3
REMARK    2  A    between atoms: _3  and  _4
REMARK    3  A    between atoms: _3  and  _6
REMARK    4  A    between atoms: _6  and  _7
REMARK    5  A    between atoms: _17  and  _19
REMARK    6  A    between atoms: _19  and  _20
REMARK    7  A    between atoms: _19  and  _22
REMARK    8  A    between atoms: _22  and  _23
REMARK    9  A    between atoms: _28  and  _29
REMARK   10  A    between atoms: _31  and  _33
REMARK   11  A    between atoms: _33  and  _34
REMARK   12  A    between atoms: _33  and  _36
REMARK   13  A    between atoms: _36  and  _37
REMARK   14  A    between atoms: _40  and  _41
REMARK   15  A    between atoms: _46  and  _48
REMARK   16  A    between atoms: _48  and  _49
REMARK   17  A    between atoms: _48  and  _51
REMARK   18  A    between atoms: _51  and  _52
REMARK   19  A    between atoms: _57  and  _59
REMARK   20  A    between atoms: _59  and  _60
REMARK   21  A    between atoms: _59  and  _62
REMARK   22  A    between atoms: _62  and  _63
REMARK   23  A    between atoms: _68  and  _70
REMARK   24  A    between atoms: _70  and  _71
REMARK   25  A    between atoms: _70  and  _73
REMARK   26  A    between atoms: _73  and  _74
REMARK   27  A    between atoms: _79  and  _81
REMARK   28  A    between atoms: _81  and  _82
REMARK   29  A    between atoms: _81  and  _84
REMARK   30  A    between atoms: _84  and  _85
REMARK   31  A    between atoms: _88  and  _90
REMARK   32  A    between atoms: _90  and  _91
REMARK   33  A    between atoms: _90  and  _93
REMARK   34  A    between atoms: _93  and  _94
REMARK   35  A    between atoms: _94  and  _95
REMARK   36  A    between atoms: _100  and  _102
REMARK   37  A    between atoms: _102  and  _103
REMARK   38  A    between atoms: _102  and  _105
REMARK   39  A    between atoms: _105  and  _106
REMARK   40  A    between atoms: _112  and  _114
REMARK   41  A    between atoms: _125  and  _128
REMARK   42  A    between atoms: _128  and  _129
REMARK   43  A    between atoms: _137  and  _138
REMARK   44  A    between atoms: _146  and  _148
REMARK   45  A    between atoms: _148  and  _149
REMARK   46  A    between atoms: _148  and  _151
REMARK   47  A    between atoms: _151  and  _152
REMARK   48  A    between atoms: _152  and  _153
REMARK   49  A    between atoms: _156  and  _158
REMARK   50  A    between atoms: _158  and  _159
REMARK   51  A    between atoms: _158  and  _161
REMARK   52  A    between atoms: _161  and  _162
REMARK   53  A    between atoms: _167  and  _169
REMARK   54  A    between atoms: _169  and  _170
REMARK   55  A    between atoms: _169  and  _172
REMARK   56  A    between atoms: _172  and  _173
REMARK   57  A    between atoms: _173  and  _174
REMARK   58  A    between atoms: _177  and  _179
REMARK   59  A    between atoms: _179  and  _180
REMARK   60  A    between atoms: _179  and  _182
REMARK   61  A    between atoms: _182  and  _183
REMARK   62  A    between atoms: _186  and  _188
REMARK   63  A    between atoms: _188  and  _189
REMARK   64  A    between atoms: _188  and  _191
REMARK   65  A    between atoms: _191  and  _192
REMARK   66  A    between atoms: _193  and  ZN_413
REMARK   67  A    between atoms: _197  and  _199
REMARK   68  A    between atoms: _199  and  _200
REMARK   69  A    between atoms: _199  and  _202
REMARK   70  A    between atoms: _202  and  _203
REMARK   71  A    between atoms: _206  and  _208
REMARK   72  A    between atoms: _208  and  _209
REMARK   73  A    between atoms: _208  and  _211
REMARK   74  A    between atoms: _214  and  _216
REMARK   75  A    between atoms: _216  and  _217
REMARK   76  A    between atoms: _216  and  _219
REMARK   77  A    between atoms: _219  and  _220
REMARK   78  A    between atoms: _225  and  _227
REMARK   79  A    between atoms: _227  and  _228
REMARK   80  A    between atoms: _227  and  _230
REMARK   81  A    between atoms: _230  and  _231
REMARK   82  A    between atoms: _237  and  _239
REMARK   83  A    between atoms: _239  and  _240
REMARK   84  A    between atoms: _239  and  _242
REMARK   85  A    between atoms: _245  and  _247
REMARK   86  A    between atoms: _247  and  _248
REMARK   87  A    between atoms: _247  and  _250
REMARK   88  A    between atoms: _250  and  _251
REMARK   89  A    between atoms: _254  and  _256
REMARK   90  A    between atoms: _256  and  _257
REMARK   91  A    between atoms: _260  and  _262
REMARK   92  A    between atoms: _262  and  _263
REMARK   93  A    between atoms: _262  and  _265
REMARK   94  A    between atoms: _268  and  _270
REMARK   95  A    between atoms: _270  and  _271
REMARK   96  A    between atoms: _270  and  _273
REMARK   97  A    between atoms: _273  and  _274
REMARK   98  A    between atoms: _277  and  _279
REMARK   99  A    between atoms: _279  and  _280
REMARK  100  A    between atoms: _282  and  _284
REMARK  101  A    between atoms: _284  and  _285
REMARK  102  A    between atoms: _287  and  _289
REMARK  103  A    between atoms: _289  and  _290
REMARK  104  A    between atoms: _289  and  _292
REMARK  105  A    between atoms: _292  and  _293
REMARK  106  A    between atoms: _295  and  _297
REMARK  107  A    between atoms: _297  and  _298
REMARK  108  A    between atoms: _297  and  _300
REMARK  109  A    between atoms: _300  and  _301
REMARK  110  A    between atoms: _304  and  _306
REMARK  111  A    between atoms: _306  and  _307
REMARK  112  A    between atoms: _306  and  _309
REMARK  113  A    between atoms: _309  and  _310
REMARK  114  A    between atoms: _313  and  _315
REMARK  115  A    between atoms: _315  and  _316
REMARK  116  A    between atoms: _315  and  _318
REMARK  117  A    between atoms: _318  and  _319
REMARK  118  A    between atoms: _323  and  _324
REMARK  119  A    between atoms: _330  and  _331
REMARK  120  A    between atoms: _336  and  _338
REMARK  121  A    between atoms: _338  and  _339
REMARK  122  A    between atoms: _338  and  _341
REMARK  123  A    between atoms: _341  and  _342
REMARK  124  A    between atoms: _345  and  _347
REMARK  125  A    between atoms: _347  and  _348
REMARK  126  A    between atoms: _347  and  _350
REMARK  127  A    between atoms: _350  and  _351
REMARK  128  A    between atoms: _354  and  _356
REMARK  129  A    between atoms: _356  and  _357
REMARK  130  A    between atoms: _356  and  _359
REMARK  131  A    between atoms: _361  and  _363
REMARK  132  A    between atoms: _363  and  _364
REMARK  133  A    between atoms: _363  and  _366
REMARK  134  A    between atoms: _369  and  _371
REMARK  135  A    between atoms: _371  and  _372
REMARK  136  A    between atoms: _371  and  _374
REMARK  137  A    between atoms: _374  and  _375
REMARK  138  A    between atoms: _385  and  _387
REMARK  139  A    between atoms: _387  and  _388
REMARK  140  A    between atoms: _387  and  _390
REMARK  141  A    between atoms: _390  and  _391
REMARK  142  A    between atoms: _396  and  _398
REMARK  143  A    between atoms: _398  and  _399
REMARK  144  A    between atoms: _398  and  _401
REMARK  145  A    between atoms: _401  and  _402
REMARK  146  A    between atoms: _402  and  _403
REMARK  147  A    between atoms: _403  and  _404
REMARK                            x       y       z     vdW  Elec       q    Type
REMARK                         _______ _______ _______ _____ _____    ______ ____
ROOT
ATOM      1  O   HOH     1      -1.222  -4.048  15.804  0.00  0.00    +0.000 OA
ENDROOT
TORSDOF 0
REMARK  Name = ../refined-set-2016/3igp/3igp_pocket.pdb
REMARK  147 active torsions:
REMARK  status: ('A' for Active; 'I' for Inactive)
REMARK    1  A    between atoms: _1  and  _3
REMARK    2  A    between atoms: _3  and  _4
REMARK    3  A    between atoms: _3  and  _6
REMARK    4  A    between atoms: _6  and  _7
REMARK    5  A    between atoms: _17  and  _19
REMARK    6  A    between atoms: _19  and  _20
REMARK    7  A    between atoms: _19  and  _22
REMARK    8  A    between atoms: _22  and  _23
REMARK    9  A    between atoms: _28  and  _29
REMARK   10  A    between atoms: _31  and  _33
REMARK   11  A    between atoms: _33  and  _34
REMARK   12  A    between atoms: _33  and  _36
REMARK   13  A    between atoms: _36  and  _37
REMARK   14  A    between atoms: _40  and  _41
REMARK   15  A    between atoms: _46  and  _48
REMARK   16  A    between atoms: _48  and  _49
REMARK   17  A    between atoms: _48  and  _51
REMARK   18  A    between atoms: _51  and  _52
REMARK   19  A    between atoms: _57  and  _59
REMARK   20  A    between atoms: _59  and  _60
REMARK   21  A    between atoms: _59  and  _62
REMARK   22  A    between atoms: _62  and  _63
REMARK   23  A    between atoms: _68  and  _70
REMARK   24  A    between atoms: _70  and  _71
REMARK   25  A    between atoms: _70  and  _73
REMARK   26  A    between atoms: _73  and  _74
REMARK   27  A    between atoms: _79  and  _81
REMARK   28  A    between atoms: _81  and  _82
REMARK   29  A    between atoms: _81  and  _84
REMARK   30  A    between atoms: _84  and  _85
REMARK   31  A    between atoms: _88  and  _90
REMARK   32  A    between atoms: _90  and  _91
REMARK   33  A    between atoms: _90  and  _93
REMARK   34  A    between atoms: _93  and  _94
REMARK   35  A    between atoms: _94  and  _95
REMARK   36  A    between atoms: _100  and  _102
REMARK   37  A    between atoms: _102  and  _103
REMARK   38  A    between atoms: _102  and  _105
REMARK   39  A    between atoms: _105  and  _106
REMARK   40  A    between atoms: _112  and  _114
REMARK   41  A    between atoms: _125  and  _128
REMARK   42  A    between atoms: _128  and  _129
REMARK   43  A    between atoms: _137  and  _138
REMARK   44  A    between atoms: _146  and  _148
REMARK   45  A    between atoms: _148  and  _149
REMARK   46  A    between atoms: _148  and  _151
REMARK   47  A    between atoms: _151  and  _152
REMARK   48  A    between atoms: _152  and  _153
REMARK   49  A    between atoms: _156  and  _158
REMARK   50  A    between atoms: _158  and  _159
REMARK   51  A    between atoms: _158  and  _161
REMARK   52  A    between atoms: _161  and  _162
REMARK   53  A    between atoms: _167  and  _169
REMARK   54  A    between atoms: _169  and  _170
REMARK   55  A    between atoms: _169  and  _172
REMARK   56  A    between atoms: _172  and  _173
REMARK   57  A    between atoms: _173  and  _174
REMARK   58  A    between atoms: _177  and  _179
REMARK   59  A    between atoms: _179  and  _180
REMARK   60  A    between atoms: _179  and  _182
REMARK   61  A    between atoms: _182  and  _183
REMARK   62  A    between atoms: _186  and  _188
REMARK   63  A    between atoms: _188  and  _189
REMARK   64  A    between atoms: _188  and  _191
REMARK   65  A    between atoms: _191  and  _192
REMARK   66  A    between atoms: _193  and  ZN_413
REMARK   67  A    between atoms: _197  and  _199
REMARK   68  A    between atoms: _199  and  _200
REMARK   69  A    between atoms: _199  and  _202
REMARK   70  A    between atoms: _202  and  _203
REMARK   71  A    between atoms: _206  and  _208
REMARK   72  A    between atoms: _208  and  _209
REMARK   73  A    between atoms: _208  and  _211
REMARK   74  A    between atoms: _214  and  _216
REMARK   75  A    between atoms: _216  and  _217
REMARK   76  A    between atoms: _216  and  _219
REMARK   77  A    between atoms: _219  and  _220
REMARK   78  A    between atoms: _225  and  _227
REMARK   79  A    between atoms: _227  and  _228
REMARK   80  A    between atoms: _227  and  _230
REMARK   81  A    between atoms: _230  and  _231
REMARK   82  A    between atoms: _237  and  _239
REMARK   83  A    between atoms: _239  and  _240
REMARK   84  A    between atoms: _239  and  _242
REMARK   85  A    between atoms: _245  and  _247
REMARK   86  A    between atoms: _247  and  _248
REMARK   87  A    between atoms: _247  and  _250
REMARK   88  A    between atoms: _250  and  _251
REMARK   89  A    between atoms: _254  and  _256
REMARK   90  A    between atoms: _256  and  _257
REMARK   91  A    between atoms: _260  and  _262
REMARK   92  A    between atoms: _262  and  _263
REMARK   93  A    between atoms: _262  and  _265
REMARK   94  A    between atoms: _268  and  _270
REMARK   95  A    between atoms: _270  and  _271
REMARK   96  A    between atoms: _270  and  _273
REMARK   97  A    between atoms: _273  and  _274
REMARK   98  A    between atoms: _277  and  _279
REMARK   99  A    between atoms: _279  and  _280
REMARK  100  A    between atoms: _282  and  _284
REMARK  101  A    between atoms: _284  and  _285
REMARK  102  A    between atoms: _287  and  _289
REMARK  103  A    between atoms: _289  and  _290
REMARK  104  A    between atoms: _289  and  _292
REMARK  105  A    between atoms: _292  and  _293
REMARK  106  A    between atoms: _295  and  _297
REMARK  107  A    between atoms: _297  and  _298
REMARK  108  A    between atoms: _297  and  _300
REMARK  109  A    between atoms: _300  and  _301
REMARK  110  A    between atoms: _304  and  _306
REMARK  111  A    between atoms: _306  and  _307
REMARK  112  A    between atoms: _306  and  _309
REMARK  113  A    between atoms: _309  and  _310
REMARK  114  A    between atoms: _313  and  _315
REMARK  115  A    between atoms: _315  and  _316
REMARK  116  A    between atoms: _315  and  _318
REMARK  117  A    between atoms: _318  and  _319
REMARK  118  A    between atoms: _323  and  _324
REMARK  119  A    between atoms: _330  and  _331
REMARK  120  A    between atoms: _336  and  _338
REMARK  121  A    between atoms: _338  and  _339
REMARK  122  A    between atoms: _338  and  _341
REMARK  123  A    between atoms: _341  and  _342
REMARK  124  A    between atoms: _345  and  _347
REMARK  125  A    between atoms: _347  and  _348
REMARK  126  A    between atoms: _347  and  _350
REMARK  127  A    between atoms: _350  and  _351
REMARK  128  A    between atoms: _354  and  _356
REMARK  129  A    between atoms: _356  and  _357
REMARK  130  A    between atoms: _356  and  _359
REMARK  131  A    between atoms: _361  and  _363
REMARK  132  A    between atoms: _363  and  _364
REMARK  133  A    between atoms: _363  and  _366
REMARK  134  A    between atoms: _369  and  _371
REMARK  135  A    between atoms: _371  and  _372
REMARK  136  A    between atoms: _371  and  _374
REMARK  137  A    between atoms: _374  and  _375
REMARK  138  A    between atoms: _385  and  _387
REMARK  139  A    between atoms: _387  and  _388
REMARK  140  A    between atoms: _387  and  _390
REMARK  141  A    between atoms: _390  and  _391
REMARK  142  A    between atoms: _396  and  _398
REMARK  143  A    between atoms: _398  and  _399
REMARK  144  A    between atoms: _398  and  _401
REMARK  145  A    between atoms: _401  and  _402
REMARK  146  A    between atoms: _402  and  _403
REMARK  147  A    between atoms: _403  and  _404
REMARK                            x       y       z     vdW  Elec       q    Type
REMARK                         _______ _______ _______ _____ _____    ______ ____
ROOT
ATOM      1  O   HOH     1      -6.923   5.688   6.219  0.00  0.00    +0.000 OA
ENDROOT
TORSDOF 0
REMARK  Name = ../refined-set-2016/3igp/3igp_pocket.pdb
REMARK  147 active torsions:
REMARK  status: ('A' for Active; 'I' for Inactive)
REMARK    1  A    between atoms: _1  and  _3
REMARK    2  A    between atoms: _3  and  _4
REMARK    3  A    between atoms: _3  and  _6
REMARK    4  A    between atoms: _6  and  _7
REMARK    5  A    between atoms: _17  and  _19
REMARK    6  A    between atoms: _19  and  _20
REMARK    7  A    between atoms: _19  and  _22
REMARK    8  A    between atoms: _22  and  _23
REMARK    9  A    between atoms: _28  and  _29
REMARK   10  A    between atoms: _31  and  _33
REMARK   11  A    between atoms: _33  and  _34
REMARK   12  A    between atoms: _33  and  _36
REMARK   13  A    between atoms: _36  and  _37
REMARK   14  A    between atoms: _40  and  _41
REMARK   15  A    between atoms: _46  and  _48
REMARK   16  A    between atoms: _48  and  _49
REMARK   17  A    between atoms: _48  and  _51
REMARK   18  A    between atoms: _51  and  _52
REMARK   19  A    between atoms: _57  and  _59
REMARK   20  A    between atoms: _59  and  _60
REMARK   21  A    between atoms: _59  and  _62
REMARK   22  A    between atoms: _62  and  _63
REMARK   23  A    between atoms: _68  and  _70
REMARK   24  A    between atoms: _70  and  _71
REMARK   25  A    between atoms: _70  and  _73
REMARK   26  A    between atoms: _73  and  _74
REMARK   27  A    between atoms: _79  and  _81
REMARK   28  A    between atoms: _81  and  _82
REMARK   29  A    between atoms: _81  and  _84
REMARK   30  A    between atoms: _84  and  _85
REMARK   31  A    between atoms: _88  and  _90
REMARK   32  A    between atoms: _90  and  _91
REMARK   33  A    between atoms: _90  and  _93
REMARK   34  A    between atoms: _93  and  _94
REMARK   35  A    between atoms: _94  and  _95
REMARK   36  A    between atoms: _100  and  _102
REMARK   37  A    between atoms: _102  and  _103
REMARK   38  A    between atoms: _102  and  _105
REMARK   39  A    between atoms: _105  and  _106
REMARK   40  A    between atoms: _112  and  _114
REMARK   41  A    between atoms: _125  and  _128
REMARK   42  A    between atoms: _128  and  _129
REMARK   43  A    between atoms: _137  and  _138
REMARK   44  A    between atoms: _146  and  _148
REMARK   45  A    between atoms: _148  and  _149
REMARK   46  A    between atoms: _148  and  _151
REMARK   47  A    between atoms: _151  and  _152
REMARK   48  A    between atoms: _152  and  _153
REMARK   49  A    between atoms: _156  and  _158
REMARK   50  A    between atoms: _158  and  _159
REMARK   51  A    between atoms: _158  and  _161
REMARK   52  A    between atoms: _161  and  _162
REMARK   53  A    between atoms: _167  and  _169
REMARK   54  A    between atoms: _169  and  _170
REMARK   55  A    between atoms: _169  and  _172
REMARK   56  A    between atoms: _172  and  _173
REMARK   57  A    between atoms: _173  and  _174
REMARK   58  A    between atoms: _177  and  _179
REMARK   59  A    between atoms: _179  and  _180
REMARK   60  A    between atoms: _179  and  _182
REMARK   61  A    between atoms: _182  and  _183
REMARK   62  A    between atoms: _186  and  _188
REMARK   63  A    between atoms: _188  and  _189
REMARK   64  A    between atoms: _188  and  _191
REMARK   65  A    between atoms: _191  and  _192
REMARK   66  A    between atoms: _193  and  ZN_413
REMARK   67  A    between atoms: _197  and  _199
REMARK   68  A    between atoms: _199  and  _200
REMARK   69  A    between atoms: _199  and  _202
REMARK   70  A    between atoms: _202  and  _203
REMARK   71  A    between atoms: _206  and  _208
REMARK   72  A    between atoms: _208  and  _209
REMARK   73  A    between atoms: _208  and  _211
REMARK   74  A    between atoms: _214  and  _216
REMARK   75  A    between atoms: _216  and  _217
REMARK   76  A    between atoms: _216  and  _219
REMARK   77  A    between atoms: _219  and  _220
REMARK   78  A    between atoms: _225  and  _227
REMARK   79  A    between atoms: _227  and  _228
REMARK   80  A    between atoms: _227  and  _230
REMARK   81  A    between atoms: _230  and  _231
REMARK   82  A    between atoms: _237  and  _239
REMARK   83  A    between atoms: _239  and  _240
REMARK   84  A    between atoms: _239  and  _242
REMARK   85  A    between atoms: _245  and  _247
REMARK   86  A    between atoms: _247  and  _248
REMARK   87  A    between atoms: _247  and  _250
REMARK   88  A    between atoms: _250  and  _251
REMARK   89  A    between atoms: _254  and  _256
REMARK   90  A    between atoms: _256  and  _257
REMARK   91  A    between atoms: _260  and  _262
REMARK   92  A    between atoms: _262  and  _263
REMARK   93  A    between atoms: _262  and  _265
REMARK   94  A    between atoms: _268  and  _270
REMARK   95  A    between atoms: _270  and  _271
REMARK   96  A    between atoms: _270  and  _273
REMARK   97  A    between atoms: _273  and  _274
REMARK   98  A    between atoms: _277  and  _279
REMARK   99  A    between atoms: _279  and  _280
REMARK  100  A    between atoms: _282  and  _284
REMARK  101  A    between atoms: _284  and  _285
REMARK  102  A    between atoms: _287  and  _289
REMARK  103  A    between atoms: _289  and  _290
REMARK  104  A    between atoms: _289  and  _292
REMARK  105  A    between atoms: _292  and  _293
REMARK  106  A    between atoms: _295  and  _297
REMARK  107  A    between atoms: _297  and  _298
REMARK  108  A    between atoms: _297  and  _300
REMARK  109  A    between atoms: _300  and  _301
REMARK  110  A    between atoms: _304  and  _306
REMARK  111  A    between atoms: _306  and  _307
REMARK  112  A    between atoms: _306  and  _309
REMARK  113  A    between atoms: _309  and  _310
REMARK  114  A    between atoms: _313  and  _315
REMARK  115  A    between atoms: _315  and  _316
REMARK  116  A    between atoms: _315  and  _318
REMARK  117  A    between atoms: _318  and  _319
REMARK  118  A    between atoms: _323  and  _324
REMARK  119  A    between atoms: _330  and  _331
REMARK  120  A    between atoms: _336  and  _338
REMARK  121  A    between atoms: _338  and  _339
REMARK  122  A    between atoms: _338  and  _341
REMARK  123  A    between atoms: _341  and  _342
REMARK  124  A    between atoms: _345  and  _347
REMARK  125  A    between atoms: _347  and  _348
REMARK  126  A    between atoms: _347  and  _350
REMARK  127  A    between atoms: _350  and  _351
REMARK  128  A    between atoms: _354  and  _356
REMARK  129  A    between atoms: _356  and  _357
REMARK  130  A    between atoms: _356  and  _359
REMARK  131  A    between atoms: _361  and  _363
REMARK  132  A    between atoms: _363  and  _364
REMARK  133  A    between atoms: _363  and  _366
REMARK  134  A    between atoms: _369  and  _371
REMARK  135  A    between atoms: _371  and  _372
REMARK  136  A    between atoms: _371  and  _374
REMARK  137  A    between atoms: _374  and  _375
REMARK  138  A    between atoms: _385  and  _387
REMARK  139  A    between atoms: _387  and  _388
REMARK  140  A    between atoms: _387  and  _390
REMARK  141  A    between atoms: _390  and  _391
REMARK  142  A    between atoms: _396  and  _398
REMARK  143  A    between atoms: _398  and  _399
REMARK  144  A    between atoms: _398  and  _401
REMARK  145  A    between atoms: _401  and  _402
REMARK  146  A    between atoms: _402  and  _403
REMARK  147  A    between atoms: _403  and  _404
REMARK                            x       y       z     vdW  Elec       q    Type
REMARK                         _______ _______ _______ _____ _____    ______ ____
ROOT
ATOM      1  O   HOH     1       3.253   4.542  12.123  0.00  0.00    +0.000 OA
ENDROOT
TORSDOF 0
REMARK  Name = ../refined-set-2016/3igp/3igp_pocket.pdb
REMARK  147 active torsions:
REMARK  status: ('A' for Active; 'I' for Inactive)
REMARK    1  A    between atoms: _1  and  _3
REMARK    2  A    between atoms: _3  and  _4
REMARK    3  A    between atoms: _3  and  _6
REMARK    4  A    between atoms: _6  and  _7
REMARK    5  A    between atoms: _17  and  _19
REMARK    6  A    between atoms: _19  and  _20
REMARK    7  A    between atoms: _19  and  _22
REMARK    8  A    between atoms: _22  and  _23
REMARK    9  A    between atoms: _28  and  _29
REMARK   10  A    between atoms: _31  and  _33
REMARK   11  A    between atoms: _33  and  _34
REMARK   12  A    between atoms: _33  and  _36
REMARK   13  A    between atoms: _36  and  _37
REMARK   14  A    between atoms: _40  and  _41
REMARK   15  A    between atoms: _46  and  _48
REMARK   16  A    between atoms: _48  and  _49
REMARK   17  A    between atoms: _48  and  _51
REMARK   18  A    between atoms: _51  and  _52
REMARK   19  A    between atoms: _57  and  _59
REMARK   20  A    between atoms: _59  and  _60
REMARK   21  A    between atoms: _59  and  _62
REMARK   22  A    between atoms: _62  and  _63
REMARK   23  A    between atoms: _68  and  _70
REMARK   24  A    between atoms: _70  and  _71
REMARK   25  A    between atoms: _70  and  _73
REMARK   26  A    between atoms: _73  and  _74
REMARK   27  A    between atoms: _79  and  _81
REMARK   28  A    between atoms: _81  and  _82
REMARK   29  A    between atoms: _81  and  _84
REMARK   30  A    between atoms: _84  and  _85
REMARK   31  A    between atoms: _88  and  _90
REMARK   32  A    between atoms: _90  and  _91
REMARK   33  A    between atoms: _90  and  _93
REMARK   34  A    between atoms: _93  and  _94
REMARK   35  A    between atoms: _94  and  _95
REMARK   36  A    between atoms: _100  and  _102
REMARK   37  A    between atoms: _102  and  _103
REMARK   38  A    between atoms: _102  and  _105
REMARK   39  A    between atoms: _105  and  _106
REMARK   40  A    between atoms: _112  and  _114
REMARK   41  A    between atoms: _125  and  _128
REMARK   42  A    between atoms: _128  and  _129
REMARK   43  A    between atoms: _137  and  _138
REMARK   44  A    between atoms: _146  and  _148
REMARK   45  A    between atoms: _148  and  _149
REMARK   46  A    between atoms: _148  and  _151
REMARK   47  A    between atoms: _151  and  _152
REMARK   48  A    between atoms: _152  and  _153
REMARK   49  A    between atoms: _156  and  _158
REMARK   50  A    between atoms: _158  and  _159
REMARK   51  A    between atoms: _158  and  _161
REMARK   52  A    between atoms: _161  and  _162
REMARK   53  A    between atoms: _167  and  _169
REMARK   54  A    between atoms: _169  and  _170
REMARK   55  A    between atoms: _169  and  _172
REMARK   56  A    between atoms: _172  and  _173
REMARK   57  A    between atoms: _173  and  _174
REMARK   58  A    between atoms: _177  and  _179
REMARK   59  A    between atoms: _179  and  _180
REMARK   60  A    between atoms: _179  and  _182
REMARK   61  A    between atoms: _182  and  _183
REMARK   62  A    between atoms: _186  and  _188
REMARK   63  A    between atoms: _188  and  _189
REMARK   64  A    between atoms: _188  and  _191
REMARK   65  A    between atoms: _191  and  _192
REMARK   66  A    between atoms: _193  and  ZN_413
REMARK   67  A    between atoms: _197  and  _199
REMARK   68  A    between atoms: _199  and  _200
REMARK   69  A    between atoms: _199  and  _202
REMARK   70  A    between atoms: _202  and  _203
REMARK   71  A    between atoms: _206  and  _208
REMARK   72  A    between atoms: _208  and  _209
REMARK   73  A    between atoms: _208  and  _211
REMARK   74  A    between atoms: _214  and  _216
REMARK   75  A    between atoms: _216  and  _217
REMARK   76  A    between atoms: _216  and  _219
REMARK   77  A    between atoms: _219  and  _220
REMARK   78  A    between atoms: _225  and  _227
REMARK   79  A    between atoms: _227  and  _228
REMARK   80  A    between atoms: _227  and  _230
REMARK   81  A    between atoms: _230  and  _231
REMARK   82  A    between atoms: _237  and  _239
REMARK   83  A    between atoms: _239  and  _240
REMARK   84  A    between atoms: _239  and  _242
REMARK   85  A    between atoms: _245  and  _247
REMARK   86  A    between atoms: _247  and  _248
REMARK   87  A    between atoms: _247  and  _250
REMARK   88  A    between atoms: _250  and  _251
REMARK   89  A    between atoms: _254  and  _256
REMARK   90  A    between atoms: _256  and  _257
REMARK   91  A    between atoms: _260  and  _262
REMARK   92  A    between atoms: _262  and  _263
REMARK   93  A    between atoms: _262  and  _265
REMARK   94  A    between atoms: _268  and  _270
REMARK   95  A    between atoms: _270  and  _271
REMARK   96  A    between atoms: _270  and  _273
REMARK   97  A    between atoms: _273  and  _274
REMARK   98  A    between atoms: _277  and  _279
REMARK   99  A    between atoms: _279  and  _280
REMARK  100  A    between atoms: _282  and  _284
REMARK  101  A    between atoms: _284  and  _285
REMARK  102  A    between atoms: _287  and  _289
REMARK  103  A    between atoms: _289  and  _290
REMARK  104  A    between atoms: _289  and  _292
REMARK  105  A    between atoms: _292  and  _293
REMARK  106  A    between atoms: _295  and  _297
REMARK  107  A    between atoms: _297  and  _298
REMARK  108  A    between atoms: _297  and  _300
REMARK  109  A    between atoms: _300  and  _301
REMARK  110  A    between atoms: _304  and  _306
REMARK  111  A    between atoms: _306  and  _307
REMARK  112  A    between atoms: _306  and  _309
REMARK  113  A    between atoms: _309  and  _310
REMARK  114  A    between atoms: _313  and  _315
REMARK  115  A    between atoms: _315  and  _316
REMARK  116  A    between atoms: _315  and  _318
REMARK  117  A    between atoms: _318  and  _319
REMARK  118  A    between atoms: _323  and  _324
REMARK  119  A    between atoms: _330  and  _331
REMARK  120  A    between atoms: _336  and  _338
REMARK  121  A    between atoms: _338  and  _339
REMARK  122  A    between atoms: _338  and  _341
REMARK  123  A    between atoms: _341  and  _342
REMARK  124  A    between atoms: _345  and  _347
REMARK  125  A    between atoms: _347  and  _348
REMARK  126  A    between atoms: _347  and  _350
REMARK  127  A    between atoms: _350  and  _351
REMARK  128  A    between atoms: _354  and  _356
REMARK  129  A    between atoms: _356  and  _357
REMARK  130  A    between atoms: _356  and  _359
REMARK  131  A    between atoms: _361  and  _363
REMARK  132  A    between atoms: _363  and  _364
REMARK  133  A    between atoms: _363  and  _366
REMARK  134  A    between atoms: _369  and  _371
REMARK  135  A    between atoms: _371  and  _372
REMARK  136  A    between atoms: _371  and  _374
REMARK  137  A    between atoms: _374  and  _375
REMARK  138  A    between atoms: _385  and  _387
REMARK  139  A    between atoms: _387  and  _388
REMARK  140  A    between atoms: _387  and  _390
REMARK  141  A    between atoms: _390  and  _391
REMARK  142  A    between atoms: _396  and  _398
REMARK  143  A    between atoms: _398  and  _399
REMARK  144  A    between atoms: _398  and  _401
REMARK  145  A    between atoms: _401  and  _402
REMARK  146  A    between atoms: _402  and  _403
REMARK  147  A    between atoms: _403  and  _404
REMARK                            x       y       z     vdW  Elec       q    Type
REMARK                         _______ _______ _______ _____ _____    ______ ____
ROOT
ATOM      1  O   HOH     1      -2.436  -2.993  11.418  0.00  0.00    +0.000 OA
ENDROOT
TORSDOF 0
REMARK  Name = ../refined-set-2016/3igp/3igp_pocket.pdb
REMARK  147 active torsions:
REMARK  status: ('A' for Active; 'I' for Inactive)
REMARK    1  A    between atoms: _1  and  _3
REMARK    2  A    between atoms: _3  and  _4
REMARK    3  A    between atoms: _3  and  _6
REMARK    4  A    between atoms: _6  and  _7
REMARK    5  A    between atoms: _17  and  _19
REMARK    6  A    between atoms: _19  and  _20
REMARK    7  A    between atoms: _19  and  _22
REMARK    8  A    between atoms: _22  and  _23
REMARK    9  A    between atoms: _28  and  _29
REMARK   10  A    between atoms: _31  and  _33
REMARK   11  A    between atoms: _33  and  _34
REMARK   12  A    between atoms: _33  and  _36
REMARK   13  A    between atoms: _36  and  _37
REMARK   14  A    between atoms: _40  and  _41
REMARK   15  A    between atoms: _46  and  _48
REMARK   16  A    between atoms: _48  and  _49
REMARK   17  A    between atoms: _48  and  _51
REMARK   18  A    between atoms: _51  and  _52
REMARK   19  A    between atoms: _57  and  _59
REMARK   20  A    between atoms: _59  and  _60
REMARK   21  A    between atoms: _59  and  _62
REMARK   22  A    between atoms: _62  and  _63
REMARK   23  A    between atoms: _68  and  _70
REMARK   24  A    between atoms: _70  and  _71
REMARK   25  A    between atoms: _70  and  _73
REMARK   26  A    between atoms: _73  and  _74
REMARK   27  A    between atoms: _79  and  _81
REMARK   28  A    between atoms: _81  and  _82
REMARK   29  A    between atoms: _81  and  _84
REMARK   30  A    between atoms: _84  and  _85
REMARK   31  A    between atoms: _88  and  _90
REMARK   32  A    between atoms: _90  and  _91
REMARK   33  A    between atoms: _90  and  _93
REMARK   34  A    between atoms: _93  and  _94
REMARK   35  A    between atoms: _94  and  _95
REMARK   36  A    between atoms: _100  and  _102
REMARK   37  A    between atoms: _102  and  _103
REMARK   38  A    between atoms: _102  and  _105
REMARK   39  A    between atoms: _105  and  _106
REMARK   40  A    between atoms: _112  and  _114
REMARK   41  A    between atoms: _125  and  _128
REMARK   42  A    between atoms: _128  and  _129
REMARK   43  A    between atoms: _137  and  _138
REMARK   44  A    between atoms: _146  and  _148
REMARK   45  A    between atoms: _148  and  _149
REMARK   46  A    between atoms: _148  and  _151
REMARK   47  A    between atoms: _151  and  _152
REMARK   48  A    between atoms: _152  and  _153
REMARK   49  A    between atoms: _156  and  _158
REMARK   50  A    between atoms: _158  and  _159
REMARK   51  A    between atoms: _158  and  _161
REMARK   52  A    between atoms: _161  and  _162
REMARK   53  A    between atoms: _167  and  _169
REMARK   54  A    between atoms: _169  and  _170
REMARK   55  A    between atoms: _169  and  _172
REMARK   56  A    between atoms: _172  and  _173
REMARK   57  A    between atoms: _173  and  _174
REMARK   58  A    between atoms: _177  and  _179
REMARK   59  A    between atoms: _179  and  _180
REMARK   60  A    between atoms: _179  and  _182
REMARK   61  A    between atoms: _182  and  _183
REMARK   62  A    between atoms: _186  and  _188
REMARK   63  A    between atoms: _188  and  _189
REMARK   64  A    between atoms: _188  and  _191
REMARK   65  A    between atoms: _191  and  _192
REMARK   66  A    between atoms: _193  and  ZN_413
REMARK   67  A    between atoms: _197  and  _199
REMARK   68  A    between atoms: _199  and  _200
REMARK   69  A    between atoms: _199  and  _202
REMARK   70  A    between atoms: _202  and  _203
REMARK   71  A    between atoms: _206  and  _208
REMARK   72  A    between atoms: _208  and  _209
REMARK   73  A    between atoms: _208  and  _211
REMARK   74  A    between atoms: _214  and  _216
REMARK   75  A    between atoms: _216  and  _217
REMARK   76  A    between atoms: _216  and  _219
REMARK   77  A    between atoms: _219  and  _220
REMARK   78  A    between atoms: _225  and  _227
REMARK   79  A    between atoms: _227  and  _228
REMARK   80  A    between atoms: _227  and  _230
REMARK   81  A    between atoms: _230  and  _231
REMARK   82  A    between atoms: _237  and  _239
REMARK   83  A    between atoms: _239  and  _240
REMARK   84  A    between atoms: _239  and  _242
REMARK   85  A    between atoms: _245  and  _247
REMARK   86  A    between atoms: _247  and  _248
REMARK   87  A    between atoms: _247  and  _250
REMARK   88  A    between atoms: _250  and  _251
REMARK   89  A    between atoms: _254  and  _256
REMARK   90  A    between atoms: _256  and  _257
REMARK   91  A    between atoms: _260  and  _262
REMARK   92  A    between atoms: _262  and  _263
REMARK   93  A    between atoms: _262  and  _265
REMARK   94  A    between atoms: _268  and  _270
REMARK   95  A    between atoms: _270  and  _271
REMARK   96  A    between atoms: _270  and  _273
REMARK   97  A    between atoms: _273  and  _274
REMARK   98  A    between atoms: _277  and  _279
REMARK   99  A    between atoms: _279  and  _280
REMARK  100  A    between atoms: _282  and  _284
REMARK  101  A    between atoms: _284  and  _285
REMARK  102  A    between atoms: _287  and  _289
REMARK  103  A    between atoms: _289  and  _290
REMARK  104  A    between atoms: _289  and  _292
REMARK  105  A    between atoms: _292  and  _293
REMARK  106  A    between atoms: _295  and  _297
REMARK  107  A    between atoms: _297  and  _298
REMARK  108  A    between atoms: _297  and  _300
REMARK  109  A    between atoms: _300  and  _301
REMARK  110  A    between atoms: _304  and  _306
REMARK  111  A    between atoms: _306  and  _307
REMARK  112  A    between atoms: _306  and  _309
REMARK  113  A    between atoms: _309  and  _310
REMARK  114  A    between atoms: _313  and  _315
REMARK  115  A    between atoms: _315  and  _316
REMARK  116  A    between atoms: _315  and  _318
REMARK  117  A    between atoms: _318  and  _319
REMARK  118  A    between atoms: _323  and  _324
REMARK  119  A    between atoms: _330  and  _331
REMARK  120  A    between atoms: _336  and  _338
REMARK  121  A    between atoms: _338  and  _339
REMARK  122  A    between atoms: _338  and  _341
REMARK  123  A    between atoms: _341  and  _342
REMARK  124  A    between atoms: _345  and  _347
REMARK  125  A    between atoms: _347  and  _348
REMARK  126  A    between atoms: _347  and  _350
REMARK  127  A    between atoms: _350  and  _351
REMARK  128  A    between atoms: _354  and  _356
REMARK  129  A    between atoms: _356  and  _357
REMARK  130  A    between atoms: _356  and  _359
REMARK  131  A    between atoms: _361  and  _363
REMARK  132  A    between atoms: _363  and  _364
REMARK  133  A    between atoms: _363  and  _366
REMARK  134  A    between atoms: _369  and  _371
REMARK  135  A    between atoms: _371  and  _372
REMARK  136  A    between atoms: _371  and  _374
REMARK  137  A    between atoms: _374  and  _375
REMARK  138  A    between atoms: _385  and  _387
REMARK  139  A    between atoms: _387  and  _388
REMARK  140  A    between atoms: _387  and  _390
REMARK  141  A    between atoms: _390  and  _391
REMARK  142  A    between atoms: _396  and  _398
REMARK  143  A    between atoms: _398  and  _399
REMARK  144  A    between atoms: _398  and  _401
REMARK  145  A    between atoms: _401  and  _402
REMARK  146  A    between atoms: _402  and  _403
REMARK  147  A    between atoms: _403  and  _404
REMARK                            x       y       z     vdW  Elec       q    Type
REMARK                         _______ _______ _______ _____ _____    ______ ____
ROOT
ATOM      1  O   HOH     1       5.565   0.695   8.519  0.00  0.00    +0.000 OA
ENDROOT
TORSDOF 0
REMARK  Name = ../refined-set-2016/3igp/3igp_pocket.pdb
REMARK  147 active torsions:
REMARK  status: ('A' for Active; 'I' for Inactive)
REMARK    1  A    between atoms: _1  and  _3
REMARK    2  A    between atoms: _3  and  _4
REMARK    3  A    between atoms: _3  and  _6
REMARK    4  A    between atoms: _6  and  _7
REMARK    5  A    between atoms: _17  and  _19
REMARK    6  A    between atoms: _19  and  _20
REMARK    7  A    between atoms: _19  and  _22
REMARK    8  A    between atoms: _22  and  _23
REMARK    9  A    between atoms: _28  and  _29
REMARK   10  A    between atoms: _31  and  _33
REMARK   11  A    between atoms: _33  and  _34
REMARK   12  A    between atoms: _33  and  _36
REMARK   13  A    between atoms: _36  and  _37
REMARK   14  A    between atoms: _40  and  _41
REMARK   15  A    between atoms: _46  and  _48
REMARK   16  A    between atoms: _48  and  _49
REMARK   17  A    between atoms: _48  and  _51
REMARK   18  A    between atoms: _51  and  _52
REMARK   19  A    between atoms: _57  and  _59
REMARK   20  A    between atoms: _59  and  _60
REMARK   21  A    between atoms: _59  and  _62
REMARK   22  A    between atoms: _62  and  _63
REMARK   23  A    between atoms: _68  and  _70
REMARK   24  A    between atoms: _70  and  _71
REMARK   25  A    between atoms: _70  and  _73
REMARK   26  A    between atoms: _73  and  _74
REMARK   27  A    between atoms: _79  and  _81
REMARK   28  A    between atoms: _81  and  _82
REMARK   29  A    between atoms: _81  and  _84
REMARK   30  A    between atoms: _84  and  _85
REMARK   31  A    between atoms: _88  and  _90
REMARK   32  A    between atoms: _90  and  _91
REMARK   33  A    between atoms: _90  and  _93
REMARK   34  A    between atoms: _93  and  _94
REMARK   35  A    between atoms: _94  and  _95
REMARK   36  A    between atoms: _100  and  _102
REMARK   37  A    between atoms: _102  and  _103
REMARK   38  A    between atoms: _102  and  _105
REMARK   39  A    between atoms: _105  and  _106
REMARK   40  A    between atoms: _112  and  _114
REMARK   41  A    between atoms: _125  and  _128
REMARK   42  A    between atoms: _128  and  _129
REMARK   43  A    between atoms: _137  and  _138
REMARK   44  A    between atoms: _146  and  _148
REMARK   45  A    between atoms: _148  and  _149
REMARK   46  A    between atoms: _148  and  _151
REMARK   47  A    between atoms: _151  and  _152
REMARK   48  A    between atoms: _152  and  _153
REMARK   49  A    between atoms: _156  and  _158
REMARK   50  A    between atoms: _158  and  _159
REMARK   51  A    between atoms: _158  and  _161
REMARK   52  A    between atoms: _161  and  _162
REMARK   53  A    between atoms: _167  and  _169
REMARK   54  A    between atoms: _169  and  _170
REMARK   55  A    between atoms: _169  and  _172
REMARK   56  A    between atoms: _172  and  _173
REMARK   57  A    between atoms: _173  and  _174
REMARK   58  A    between atoms: _177  and  _179
REMARK   59  A    between atoms: _179  and  _180
REMARK   60  A    between atoms: _179  and  _182
REMARK   61  A    between atoms: _182  and  _183
REMARK   62  A    between atoms: _186  and  _188
REMARK   63  A    between atoms: _188  and  _189
REMARK   64  A    between atoms: _188  and  _191
REMARK   65  A    between atoms: _191  and  _192
REMARK   66  A    between atoms: _193  and  ZN_413
REMARK   67  A    between atoms: _197  and  _199
REMARK   68  A    between atoms: _199  and  _200
REMARK   69  A    between atoms: _199  and  _202
REMARK   70  A    between atoms: _202  and  _203
REMARK   71  A    between atoms: _206  and  _208
REMARK   72  A    between atoms: _208  and  _209
REMARK   73  A    between atoms: _208  and  _211
REMARK   74  A    between atoms: _214  and  _216
REMARK   75  A    between atoms: _216  and  _217
REMARK   76  A    between atoms: _216  and  _219
REMARK   77  A    between atoms: _219  and  _220
REMARK   78  A    between atoms: _225  and  _227
REMARK   79  A    between atoms: _227  and  _228
REMARK   80  A    between atoms: _227  and  _230
REMARK   81  A    between atoms: _230  and  _231
REMARK   82  A    between atoms: _237  and  _239
REMARK   83  A    between atoms: _239  and  _240
REMARK   84  A    between atoms: _239  and  _242
REMARK   85  A    between atoms: _245  and  _247
REMARK   86  A    between atoms: _247  and  _248
REMARK   87  A    between atoms: _247  and  _250
REMARK   88  A    between atoms: _250  and  _251
REMARK   89  A    between atoms: _254  and  _256
REMARK   90  A    between atoms: _256  and  _257
REMARK   91  A    between atoms: _260  and  _262
REMARK   92  A    between atoms: _262  and  _263
REMARK   93  A    between atoms: _262  and  _265
REMARK   94  A    between atoms: _268  and  _270
REMARK   95  A    between atoms: _270  and  _271
REMARK   96  A    between atoms: _270  and  _273
REMARK   97  A    between atoms: _273  and  _274
REMARK   98  A    between atoms: _277  and  _279
REMARK   99  A    between atoms: _279  and  _280
REMARK  100  A    between atoms: _282  and  _284
REMARK  101  A    between atoms: _284  and  _285
REMARK  102  A    between atoms: _287  and  _289
REMARK  103  A    between atoms: _289  and  _290
REMARK  104  A    between atoms: _289  and  _292
REMARK  105  A    between atoms: _292  and  _293
REMARK  106  A    between atoms: _295  and  _297
REMARK  107  A    between atoms: _297  and  _298
REMARK  108  A    between atoms: _297  and  _300
REMARK  109  A    between atoms: _300  and  _301
REMARK  110  A    between atoms: _304  and  _306
REMARK  111  A    between atoms: _306  and  _307
REMARK  112  A    between atoms: _306  and  _309
REMARK  113  A    between atoms: _309  and  _310
REMARK  114  A    between atoms: _313  and  _315
REMARK  115  A    between atoms: _315  and  _316
REMARK  116  A    between atoms: _315  and  _318
REMARK  117  A    between atoms: _318  and  _319
REMARK  118  A    between atoms: _323  and  _324
REMARK  119  A    between atoms: _330  and  _331
REMARK  120  A    between atoms: _336  and  _338
REMARK  121  A    between atoms: _338  and  _339
REMARK  122  A    between atoms: _338  and  _341
REMARK  123  A    between atoms: _341  and  _342
REMARK  124  A    between atoms: _345  and  _347
REMARK  125  A    between atoms: _347  and  _348
REMARK  126  A    between atoms: _347  and  _350
REMARK  127  A    between atoms: _350  and  _351
REMARK  128  A    between atoms: _354  and  _356
REMARK  129  A    between atoms: _356  and  _357
REMARK  130  A    between atoms: _356  and  _359
REMARK  131  A    between atoms: _361  and  _363
REMARK  132  A    between atoms: _363  and  _364
REMARK  133  A    between atoms: _363  and  _366
REMARK  134  A    between atoms: _369  and  _371
REMARK  135  A    between atoms: _371  and  _372
REMARK  136  A    between atoms: _371  and  _374
REMARK  137  A    between atoms: _374  and  _375
REMARK  138  A    between atoms: _385  and  _387
REMARK  139  A    between atoms: _387  and  _388
REMARK  140  A    between atoms: _387  and  _390
REMARK  141  A    between atoms: _390  and  _391
REMARK  142  A    between atoms: _396  and  _398
REMARK  143  A    between atoms: _398  and  _399
REMARK  144  A    between atoms: _398  and  _401
REMARK  145  A    between atoms: _401  and  _402
REMARK  146  A    between atoms: _402  and  _403
REMARK  147  A    between atoms: _403  and  _404
REMARK                            x       y       z     vdW  Elec       q    Type
REMARK                         _______ _______ _______ _____ _____    ______ ____
ROOT
ATOM      1  O   HOH     1       4.562   6.682  13.258  0.00  0.00    +0.000 OA
ENDROOT
TORSDOF 0
REMARK  Name = ../refined-set-2016/3igp/3igp_pocket.pdb
REMARK  147 active torsions:
REMARK  status: ('A' for Active; 'I' for Inactive)
REMARK    1  A    between atoms: _1  and  _3
REMARK    2  A    between atoms: _3  and  _4
REMARK    3  A    between atoms: _3  and  _6
REMARK    4  A    between atoms: _6  and  _7
REMARK    5  A    between atoms: _17  and  _19
REMARK    6  A    between atoms: _19  and  _20
REMARK    7  A    between atoms: _19  and  _22
REMARK    8  A    between atoms: _22  and  _23
REMARK    9  A    between atoms: _28  and  _29
REMARK   10  A    between atoms: _31  and  _33
REMARK   11  A    between atoms: _33  and  _34
REMARK   12  A    between atoms: _33  and  _36
REMARK   13  A    between atoms: _36  and  _37
REMARK   14  A    between atoms: _40  and  _41
REMARK   15  A    between atoms: _46  and  _48
REMARK   16  A    between atoms: _48  and  _49
REMARK   17  A    between atoms: _48  and  _51
REMARK   18  A    between atoms: _51  and  _52
REMARK   19  A    between atoms: _57  and  _59
REMARK   20  A    between atoms: _59  and  _60
REMARK   21  A    between atoms: _59  and  _62
REMARK   22  A    between atoms: _62  and  _63
REMARK   23  A    between atoms: _68  and  _70
REMARK   24  A    between atoms: _70  and  _71
REMARK   25  A    between atoms: _70  and  _73
REMARK   26  A    between atoms: _73  and  _74
REMARK   27  A    between atoms: _79  and  _81
REMARK   28  A    between atoms: _81  and  _82
REMARK   29  A    between atoms: _81  and  _84
REMARK   30  A    between atoms: _84  and  _85
REMARK   31  A    between atoms: _88  and  _90
REMARK   32  A    between atoms: _90  and  _91
REMARK   33  A    between atoms: _90  and  _93
REMARK   34  A    between atoms: _93  and  _94
REMARK   35  A    between atoms: _94  and  _95
REMARK   36  A    between atoms: _100  and  _102
REMARK   37  A    between atoms: _102  and  _103
REMARK   38  A    between atoms: _102  and  _105
REMARK   39  A    between atoms: _105  and  _106
REMARK   40  A    between atoms: _112  and  _114
REMARK   41  A    between atoms: _125  and  _128
REMARK   42  A    between atoms: _128  and  _129
REMARK   43  A    between atoms: _137  and  _138
REMARK   44  A    between atoms: _146  and  _148
REMARK   45  A    between atoms: _148  and  _149
REMARK   46  A    between atoms: _148  and  _151
REMARK   47  A    between atoms: _151  and  _152
REMARK   48  A    between atoms: _152  and  _153
REMARK   49  A    between atoms: _156  and  _158
REMARK   50  A    between atoms: _158  and  _159
REMARK   51  A    between atoms: _158  and  _161
REMARK   52  A    between atoms: _161  and  _162
REMARK   53  A    between atoms: _167  and  _169
REMARK   54  A    between atoms: _169  and  _170
REMARK   55  A    between atoms: _169  and  _172
REMARK   56  A    between atoms: _172  and  _173
REMARK   57  A    between atoms: _173  and  _174
REMARK   58  A    between atoms: _177  and  _179
REMARK   59  A    between atoms: _179  and  _180
REMARK   60  A    between atoms: _179  and  _182
REMARK   61  A    between atoms: _182  and  _183
REMARK   62  A    between atoms: _186  and  _188
REMARK   63  A    between atoms: _188  and  _189
REMARK   64  A    between atoms: _188  and  _191
REMARK   65  A    between atoms: _191  and  _192
REMARK   66  A    between atoms: _193  and  ZN_413
REMARK   67  A    between atoms: _197  and  _199
REMARK   68  A    between atoms: _199  and  _200
REMARK   69  A    between atoms: _199  and  _202
REMARK   70  A    between atoms: _202  and  _203
REMARK   71  A    between atoms: _206  and  _208
REMARK   72  A    between atoms: _208  and  _209
REMARK   73  A    between atoms: _208  and  _211
REMARK   74  A    between atoms: _214  and  _216
REMARK   75  A    between atoms: _216  and  _217
REMARK   76  A    between atoms: _216  and  _219
REMARK   77  A    between atoms: _219  and  _220
REMARK   78  A    between atoms: _225  and  _227
REMARK   79  A    between atoms: _227  and  _228
REMARK   80  A    between atoms: _227  and  _230
REMARK   81  A    between atoms: _230  and  _231
REMARK   82  A    between atoms: _237  and  _239
REMARK   83  A    between atoms: _239  and  _240
REMARK   84  A    between atoms: _239  and  _242
REMARK   85  A    between atoms: _245  and  _247
REMARK   86  A    between atoms: _247  and  _248
REMARK   87  A    between atoms: _247  and  _250
REMARK   88  A    between atoms: _250  and  _251
REMARK   89  A    between atoms: _254  and  _256
REMARK   90  A    between atoms: _256  and  _257
REMARK   91  A    between atoms: _260  and  _262
REMARK   92  A    between atoms: _262  and  _263
REMARK   93  A    between atoms: _262  and  _265
REMARK   94  A    between atoms: _268  and  _270
REMARK   95  A    between atoms: _270  and  _271
REMARK   96  A    between atoms: _270  and  _273
REMARK   97  A    between atoms: _273  and  _274
REMARK   98  A    between atoms: _277  and  _279
REMARK   99  A    between atoms: _279  and  _280
REMARK  100  A    between atoms: _282  and  _284
REMARK  101  A    between atoms: _284  and  _285
REMARK  102  A    between atoms: _287  and  _289
REMARK  103  A    between atoms: _289  and  _290
REMARK  104  A    between atoms: _289  and  _292
REMARK  105  A    between atoms: _292  and  _293
REMARK  106  A    between atoms: _295  and  _297
REMARK  107  A    between atoms: _297  and  _298
REMARK  108  A    between atoms: _297  and  _300
REMARK  109  A    between atoms: _300  and  _301
REMARK  110  A    between atoms: _304  and  _306
REMARK  111  A    between atoms: _306  and  _307
REMARK  112  A    between atoms: _306  and  _309
REMARK  113  A    between atoms: _309  and  _310
REMARK  114  A    between atoms: _313  and  _315
REMARK  115  A    between atoms: _315  and  _316
REMARK  116  A    between atoms: _315  and  _318
REMARK  117  A    between atoms: _318  and  _319
REMARK  118  A    between atoms: _323  and  _324
REMARK  119  A    between atoms: _330  and  _331
REMARK  120  A    between atoms: _336  and  _338
REMARK  121  A    between atoms: _338  and  _339
REMARK  122  A    between atoms: _338  and  _341
REMARK  123  A    between atoms: _341  and  _342
REMARK  124  A    between atoms: _345  and  _347
REMARK  125  A    between atoms: _347  and  _348
REMARK  126  A    between atoms: _347  and  _350
REMARK  127  A    between atoms: _350  and  _351
REMARK  128  A    between atoms: _354  and  _356
REMARK  129  A    between atoms: _356  and  _357
REMARK  130  A    between atoms: _356  and  _359
REMARK  131  A    between atoms: _361  and  _363
REMARK  132  A    between atoms: _363  and  _364
REMARK  133  A    between atoms: _363  and  _366
REMARK  134  A    between atoms: _369  and  _371
REMARK  135  A    between atoms: _371  and  _372
REMARK  136  A    between atoms: _371  and  _374
REMARK  137  A    between atoms: _374  and  _375
REMARK  138  A    between atoms: _385  and  _387
REMARK  139  A    between atoms: _387  and  _388
REMARK  140  A    between atoms: _387  and  _390
REMARK  141  A    between atoms: _390  and  _391
REMARK  142  A    between atoms: _396  and  _398
REMARK  143  A    between atoms: _398  and  _399
REMARK  144  A    between atoms: _398  and  _401
REMARK  145  A    between atoms: _401  and  _402
REMARK  146  A    between atoms: _402  and  _403
REMARK  147  A    between atoms: _403  and  _404
REMARK                            x       y       z     vdW  Elec       q    Type
REMARK                         _______ _______ _______ _____ _____    ______ ____
ROOT
ATOM      1  O   HOH     1       1.771   7.663  12.673  0.00  0.00    +0.000 OA
ENDROOT
TORSDOF 0
REMARK  Name = ../refined-set-2016/3igp/3igp_pocket.pdb
REMARK  147 active torsions:
REMARK  status: ('A' for Active; 'I' for Inactive)
REMARK    1  A    between atoms: _1  and  _3
REMARK    2  A    between atoms: _3  and  _4
REMARK    3  A    between atoms: _3  and  _6
REMARK    4  A    between atoms: _6  and  _7
REMARK    5  A    between atoms: _17  and  _19
REMARK    6  A    between atoms: _19  and  _20
REMARK    7  A    between atoms: _19  and  _22
REMARK    8  A    between atoms: _22  and  _23
REMARK    9  A    between atoms: _28  and  _29
REMARK   10  A    between atoms: _31  and  _33
REMARK   11  A    between atoms: _33  and  _34
REMARK   12  A    between atoms: _33  and  _36
REMARK   13  A    between atoms: _36  and  _37
REMARK   14  A    between atoms: _40  and  _41
REMARK   15  A    between atoms: _46  and  _48
REMARK   16  A    between atoms: _48  and  _49
REMARK   17  A    between atoms: _48  and  _51
REMARK   18  A    between atoms: _51  and  _52
REMARK   19  A    between atoms: _57  and  _59
REMARK   20  A    between atoms: _59  and  _60
REMARK   21  A    between atoms: _59  and  _62
REMARK   22  A    between atoms: _62  and  _63
REMARK   23  A    between atoms: _68  and  _70
REMARK   24  A    between atoms: _70  and  _71
REMARK   25  A    between atoms: _70  and  _73
REMARK   26  A    between atoms: _73  and  _74
REMARK   27  A    between atoms: _79  and  _81
REMARK   28  A    between atoms: _81  and  _82
REMARK   29  A    between atoms: _81  and  _84
REMARK   30  A    between atoms: _84  and  _85
REMARK   31  A    between atoms: _88  and  _90
REMARK   32  A    between atoms: _90  and  _91
REMARK   33  A    between atoms: _90  and  _93
REMARK   34  A    between atoms: _93  and  _94
REMARK   35  A    between atoms: _94  and  _95
REMARK   36  A    between atoms: _100  and  _102
REMARK   37  A    between atoms: _102  and  _103
REMARK   38  A    between atoms: _102  and  _105
REMARK   39  A    between atoms: _105  and  _106
REMARK   40  A    between atoms: _112  and  _114
REMARK   41  A    between atoms: _125  and  _128
REMARK   42  A    between atoms: _128  and  _129
REMARK   43  A    between atoms: _137  and  _138
REMARK   44  A    between atoms: _146  and  _148
REMARK   45  A    between atoms: _148  and  _149
REMARK   46  A    between atoms: _148  and  _151
REMARK   47  A    between atoms: _151  and  _152
REMARK   48  A    between atoms: _152  and  _153
REMARK   49  A    between atoms: _156  and  _158
REMARK   50  A    between atoms: _158  and  _159
REMARK   51  A    between atoms: _158  and  _161
REMARK   52  A    between atoms: _161  and  _162
REMARK   53  A    between atoms: _167  and  _169
REMARK   54  A    between atoms: _169  and  _170
REMARK   55  A    between atoms: _169  and  _172
REMARK   56  A    between atoms: _172  and  _173
REMARK   57  A    between atoms: _173  and  _174
REMARK   58  A    between atoms: _177  and  _179
REMARK   59  A    between atoms: _179  and  _180
REMARK   60  A    between atoms: _179  and  _182
REMARK   61  A    between atoms: _182  and  _183
REMARK   62  A    between atoms: _186  and  _188
REMARK   63  A    between atoms: _188  and  _189
REMARK   64  A    between atoms: _188  and  _191
REMARK   65  A    between atoms: _191  and  _192
REMARK   66  A    between atoms: _193  and  ZN_413
REMARK   67  A    between atoms: _197  and  _199
REMARK   68  A    between atoms: _199  and  _200
REMARK   69  A    between atoms: _199  and  _202
REMARK   70  A    between atoms: _202  and  _203
REMARK   71  A    between atoms: _206  and  _208
REMARK   72  A    between atoms: _208  and  _209
REMARK   73  A    between atoms: _208  and  _211
REMARK   74  A    between atoms: _214  and  _216
REMARK   75  A    between atoms: _216  and  _217
REMARK   76  A    between atoms: _216  and  _219
REMARK   77  A    between atoms: _219  and  _220
REMARK   78  A    between atoms: _225  and  _227
REMARK   79  A    between atoms: _227  and  _228
REMARK   80  A    between atoms: _227  and  _230
REMARK   81  A    between atoms: _230  and  _231
REMARK   82  A    between atoms: _237  and  _239
REMARK   83  A    between atoms: _239  and  _240
REMARK   84  A    between atoms: _239  and  _242
REMARK   85  A    between atoms: _245  and  _247
REMARK   86  A    between atoms: _247  and  _248
REMARK   87  A    between atoms: _247  and  _250
REMARK   88  A    between atoms: _250  and  _251
REMARK   89  A    between atoms: _254  and  _256
REMARK   90  A    between atoms: _256  and  _257
REMARK   91  A    between atoms: _260  and  _262
REMARK   92  A    between atoms: _262  and  _263
REMARK   93  A    between atoms: _262  and  _265
REMARK   94  A    between atoms: _268  and  _270
REMARK   95  A    between atoms: _270  and  _271
REMARK   96  A    between atoms: _270  and  _273
REMARK   97  A    between atoms: _273  and  _274
REMARK   98  A    between atoms: _277  and  _279
REMARK   99  A    between atoms: _279  and  _280
REMARK  100  A    between atoms: _282  and  _284
REMARK  101  A    between atoms: _284  and  _285
REMARK  102  A    between atoms: _287  and  _289
REMARK  103  A    between atoms: _289  and  _290
REMARK  104  A    between atoms: _289  and  _292
REMARK  105  A    between atoms: _292  and  _293
REMARK  106  A    between atoms: _295  and  _297
REMARK  107  A    between atoms: _297  and  _298
REMARK  108  A    between atoms: _297  and  _300
REMARK  109  A    between atoms: _300  and  _301
REMARK  110  A    between atoms: _304  and  _306
REMARK  111  A    between atoms: _306  and  _307
REMARK  112  A    between atoms: _306  and  _309
REMARK  113  A    between atoms: _309  and  _310
REMARK  114  A    between atoms: _313  and  _315
REMARK  115  A    between atoms: _315  and  _316
REMARK  116  A    between atoms: _315  and  _318
REMARK  117  A    between atoms: _318  and  _319
REMARK  118  A    between atoms: _323  and  _324
REMARK  119  A    between atoms: _330  and  _331
REMARK  120  A    between atoms: _336  and  _338
REMARK  121  A    between atoms: _338  and  _339
REMARK  122  A    between atoms: _338  and  _341
REMARK  123  A    between atoms: _341  and  _342
REMARK  124  A    between atoms: _345  and  _347
REMARK  125  A    between atoms: _347  and  _348
REMARK  126  A    between atoms: _347  and  _350
REMARK  127  A    between atoms: _350  and  _351
REMARK  128  A    between atoms: _354  and  _356
REMARK  129  A    between atoms: _356  and  _357
REMARK  130  A    between atoms: _356  and  _359
REMARK  131  A    between atoms: _361  and  _363
REMARK  132  A    between atoms: _363  and  _364
REMARK  133  A    between atoms: _363  and  _366
REMARK  134  A    between atoms: _369  and  _371
REMARK  135  A    between atoms: _371  and  _372
REMARK  136  A    between atoms: _371  and  _374
REMARK  137  A    between atoms: _374  and  _375
REMARK  138  A    between atoms: _385  and  _387
REMARK  139  A    between atoms: _387  and  _388
REMARK  140  A    between atoms: _387  and  _390
REMARK  141  A    between atoms: _390  and  _391
REMARK  142  A    between atoms: _396  and  _398
REMARK  143  A    between atoms: _398  and  _399
REMARK  144  A    between atoms: _398  and  _401
REMARK  145  A    between atoms: _401  and  _402
REMARK  146  A    between atoms: _402  and  _403
REMARK  147  A    between atoms: _403  and  _404
REMARK                            x       y       z     vdW  Elec       q    Type
REMARK                         _______ _______ _______ _____ _____    ______ ____
ROOT
ATOM      1  O   HOH     1      -0.212   3.365   9.960  0.00  0.00    +0.000 OA
ENDROOT
TORSDOF 0
REMARK  Name = ../refined-set-2016/3igp/3igp_pocket.pdb
REMARK  147 active torsions:
REMARK  status: ('A' for Active; 'I' for Inactive)
REMARK    1  A    between atoms: _1  and  _3
REMARK    2  A    between atoms: _3  and  _4
REMARK    3  A    between atoms: _3  and  _6
REMARK    4  A    between atoms: _6  and  _7
REMARK    5  A    between atoms: _17  and  _19
REMARK    6  A    between atoms: _19  and  _20
REMARK    7  A    between atoms: _19  and  _22
REMARK    8  A    between atoms: _22  and  _23
REMARK    9  A    between atoms: _28  and  _29
REMARK   10  A    between atoms: _31  and  _33
REMARK   11  A    between atoms: _33  and  _34
REMARK   12  A    between atoms: _33  and  _36
REMARK   13  A    between atoms: _36  and  _37
REMARK   14  A    between atoms: _40  and  _41
REMARK   15  A    between atoms: _46  and  _48
REMARK   16  A    between atoms: _48  and  _49
REMARK   17  A    between atoms: _48  and  _51
REMARK   18  A    between atoms: _51  and  _52
REMARK   19  A    between atoms: _57  and  _59
REMARK   20  A    between atoms: _59  and  _60
REMARK   21  A    between atoms: _59  and  _62
REMARK   22  A    between atoms: _62  and  _63
REMARK   23  A    between atoms: _68  and  _70
REMARK   24  A    between atoms: _70  and  _71
REMARK   25  A    between atoms: _70  and  _73
REMARK   26  A    between atoms: _73  and  _74
REMARK   27  A    between atoms: _79  and  _81
REMARK   28  A    between atoms: _81  and  _82
REMARK   29  A    between atoms: _81  and  _84
REMARK   30  A    between atoms: _84  and  _85
REMARK   31  A    between atoms: _88  and  _90
REMARK   32  A    between atoms: _90  and  _91
REMARK   33  A    between atoms: _90  and  _93
REMARK   34  A    between atoms: _93  and  _94
REMARK   35  A    between atoms: _94  and  _95
REMARK   36  A    between atoms: _100  and  _102
REMARK   37  A    between atoms: _102  and  _103
REMARK   38  A    between atoms: _102  and  _105
REMARK   39  A    between atoms: _105  and  _106
REMARK   40  A    between atoms: _112  and  _114
REMARK   41  A    between atoms: _125  and  _128
REMARK   42  A    between atoms: _128  and  _129
REMARK   43  A    between atoms: _137  and  _138
REMARK   44  A    between atoms: _146  and  _148
REMARK   45  A    between atoms: _148  and  _149
REMARK   46  A    between atoms: _148  and  _151
REMARK   47  A    between atoms: _151  and  _152
REMARK   48  A    between atoms: _152  and  _153
REMARK   49  A    between atoms: _156  and  _158
REMARK   50  A    between atoms: _158  and  _159
REMARK   51  A    between atoms: _158  and  _161
REMARK   52  A    between atoms: _161  and  _162
REMARK   53  A    between atoms: _167  and  _169
REMARK   54  A    between atoms: _169  and  _170
REMARK   55  A    between atoms: _169  and  _172
REMARK   56  A    between atoms: _172  and  _173
REMARK   57  A    between atoms: _173  and  _174
REMARK   58  A    between atoms: _177  and  _179
REMARK   59  A    between atoms: _179  and  _180
REMARK   60  A    between atoms: _179  and  _182
REMARK   61  A    between atoms: _182  and  _183
REMARK   62  A    between atoms: _186  and  _188
REMARK   63  A    between atoms: _188  and  _189
REMARK   64  A    between atoms: _188  and  _191
REMARK   65  A    between atoms: _191  and  _192
REMARK   66  A    between atoms: _193  and  ZN_413
REMARK   67  A    between atoms: _197  and  _199
REMARK   68  A    between atoms: _199  and  _200
REMARK   69  A    between atoms: _199  and  _202
REMARK   70  A    between atoms: _202  and  _203
REMARK   71  A    between atoms: _206  and  _208
REMARK   72  A    between atoms: _208  and  _209
REMARK   73  A    between atoms: _208  and  _211
REMARK   74  A    between atoms: _214  and  _216
REMARK   75  A    between atoms: _216  and  _217
REMARK   76  A    between atoms: _216  and  _219
REMARK   77  A    between atoms: _219  and  _220
REMARK   78  A    between atoms: _225  and  _227
REMARK   79  A    between atoms: _227  and  _228
REMARK   80  A    between atoms: _227  and  _230
REMARK   81  A    between atoms: _230  and  _231
REMARK   82  A    between atoms: _237  and  _239
REMARK   83  A    between atoms: _239  and  _240
REMARK   84  A    between atoms: _239  and  _242
REMARK   85  A    between atoms: _245  and  _247
REMARK   86  A    between atoms: _247  and  _248
REMARK   87  A    between atoms: _247  and  _250
REMARK   88  A    between atoms: _250  and  _251
REMARK   89  A    between atoms: _254  and  _256
REMARK   90  A    between atoms: _256  and  _257
REMARK   91  A    between atoms: _260  and  _262
REMARK   92  A    between atoms: _262  and  _263
REMARK   93  A    between atoms: _262  and  _265
REMARK   94  A    between atoms: _268  and  _270
REMARK   95  A    between atoms: _270  and  _271
REMARK   96  A    between atoms: _270  and  _273
REMARK   97  A    between atoms: _273  and  _274
REMARK   98  A    between atoms: _277  and  _279
REMARK   99  A    between atoms: _279  and  _280
REMARK  100  A    between atoms: _282  and  _284
REMARK  101  A    between atoms: _284  and  _285
REMARK  102  A    between atoms: _287  and  _289
REMARK  103  A    between atoms: _289  and  _290
REMARK  104  A    between atoms: _289  and  _292
REMARK  105  A    between atoms: _292  and  _293
REMARK  106  A    between atoms: _295  and  _297
REMARK  107  A    between atoms: _297  and  _298
REMARK  108  A    between atoms: _297  and  _300
REMARK  109  A    between atoms: _300  and  _301
REMARK  110  A    between atoms: _304  and  _306
REMARK  111  A    between atoms: _306  and  _307
REMARK  112  A    between atoms: _306  and  _309
REMARK  113  A    between atoms: _309  and  _310
REMARK  114  A    between atoms: _313  and  _315
REMARK  115  A    between atoms: _315  and  _316
REMARK  116  A    between atoms: _315  and  _318
REMARK  117  A    between atoms: _318  and  _319
REMARK  118  A    between atoms: _323  and  _324
REMARK  119  A    between atoms: _330  and  _331
REMARK  120  A    between atoms: _336  and  _338
REMARK  121  A    between atoms: _338  and  _339
REMARK  122  A    between atoms: _338  and  _341
REMARK  123  A    between atoms: _341  and  _342
REMARK  124  A    between atoms: _345  and  _347
REMARK  125  A    between atoms: _347  and  _348
REMARK  126  A    between atoms: _347  and  _350
REMARK  127  A    between atoms: _350  and  _351
REMARK  128  A    between atoms: _354  and  _356
REMARK  129  A    between atoms: _356  and  _357
REMARK  130  A    between atoms: _356  and  _359
REMARK  131  A    between atoms: _361  and  _363
REMARK  132  A    between atoms: _363  and  _364
REMARK  133  A    between atoms: _363  and  _366
REMARK  134  A    between atoms: _369  and  _371
REMARK  135  A    between atoms: _371  and  _372
REMARK  136  A    between atoms: _371  and  _374
REMARK  137  A    between atoms: _374  and  _375
REMARK  138  A    between atoms: _385  and  _387
REMARK  139  A    between atoms: _387  and  _388
REMARK  140  A    between atoms: _387  and  _390
REMARK  141  A    between atoms: _390  and  _391
REMARK  142  A    between atoms: _396  and  _398
REMARK  143  A    between atoms: _398  and  _399
REMARK  144  A    between atoms: _398  and  _401
REMARK  145  A    between atoms: _401  and  _402
REMARK  146  A    between atoms: _402  and  _403
REMARK  147  A    between atoms: _403  and  _404
REMARK                            x       y       z     vdW  Elec       q    Type
REMARK                         _______ _______ _______ _____ _____    ______ ____
ROOT
ATOM      1  O   HOH     1      -1.010   1.476  11.570  0.00  0.00    +0.000 OA
ENDROOT
TORSDOF 0
REMARK  Name = ../refined-set-2016/3igp/3igp_pocket.pdb
REMARK  147 active torsions:
REMARK  status: ('A' for Active; 'I' for Inactive)
REMARK    1  A    between atoms: _1  and  _3
REMARK    2  A    between atoms: _3  and  _4
REMARK    3  A    between atoms: _3  and  _6
REMARK    4  A    between atoms: _6  and  _7
REMARK    5  A    between atoms: _17  and  _19
REMARK    6  A    between atoms: _19  and  _20
REMARK    7  A    between atoms: _19  and  _22
REMARK    8  A    between atoms: _22  and  _23
REMARK    9  A    between atoms: _28  and  _29
REMARK   10  A    between atoms: _31  and  _33
REMARK   11  A    between atoms: _33  and  _34
REMARK   12  A    between atoms: _33  and  _36
REMARK   13  A    between atoms: _36  and  _37
REMARK   14  A    between atoms: _40  and  _41
REMARK   15  A    between atoms: _46  and  _48
REMARK   16  A    between atoms: _48  and  _49
REMARK   17  A    between atoms: _48  and  _51
REMARK   18  A    between atoms: _51  and  _52
REMARK   19  A    between atoms: _57  and  _59
REMARK   20  A    between atoms: _59  and  _60
REMARK   21  A    between atoms: _59  and  _62
REMARK   22  A    between atoms: _62  and  _63
REMARK   23  A    between atoms: _68  and  _70
REMARK   24  A    between atoms: _70  and  _71
REMARK   25  A    between atoms: _70  and  _73
REMARK   26  A    between atoms: _73  and  _74
REMARK   27  A    between atoms: _79  and  _81
REMARK   28  A    between atoms: _81  and  _82
REMARK   29  A    between atoms: _81  and  _84
REMARK   30  A    between atoms: _84  and  _85
REMARK   31  A    between atoms: _88  and  _90
REMARK   32  A    between atoms: _90  and  _91
REMARK   33  A    between atoms: _90  and  _93
REMARK   34  A    between atoms: _93  and  _94
REMARK   35  A    between atoms: _94  and  _95
REMARK   36  A    between atoms: _100  and  _102
REMARK   37  A    between atoms: _102  and  _103
REMARK   38  A    between atoms: _102  and  _105
REMARK   39  A    between atoms: _105  and  _106
REMARK   40  A    between atoms: _112  and  _114
REMARK   41  A    between atoms: _125  and  _128
REMARK   42  A    between atoms: _128  and  _129
REMARK   43  A    between atoms: _137  and  _138
REMARK   44  A    between atoms: _146  and  _148
REMARK   45  A    between atoms: _148  and  _149
REMARK   46  A    between atoms: _148  and  _151
REMARK   47  A    between atoms: _151  and  _152
REMARK   48  A    between atoms: _152  and  _153
REMARK   49  A    between atoms: _156  and  _158
REMARK   50  A    between atoms: _158  and  _159
REMARK   51  A    between atoms: _158  and  _161
REMARK   52  A    between atoms: _161  and  _162
REMARK   53  A    between atoms: _167  and  _169
REMARK   54  A    between atoms: _169  and  _170
REMARK   55  A    between atoms: _169  and  _172
REMARK   56  A    between atoms: _172  and  _173
REMARK   57  A    between atoms: _173  and  _174
REMARK   58  A    between atoms: _177  and  _179
REMARK   59  A    between atoms: _179  and  _180
REMARK   60  A    between atoms: _179  and  _182
REMARK   61  A    between atoms: _182  and  _183
REMARK   62  A    between atoms: _186  and  _188
REMARK   63  A    between atoms: _188  and  _189
REMARK   64  A    between atoms: _188  and  _191
REMARK   65  A    between atoms: _191  and  _192
REMARK   66  A    between atoms: _193  and  ZN_413
REMARK   67  A    between atoms: _197  and  _199
REMARK   68  A    between atoms: _199  and  _200
REMARK   69  A    between atoms: _199  and  _202
REMARK   70  A    between atoms: _202  and  _203
REMARK   71  A    between atoms: _206  and  _208
REMARK   72  A    between atoms: _208  and  _209
REMARK   73  A    between atoms: _208  and  _211
REMARK   74  A    between atoms: _214  and  _216
REMARK   75  A    between atoms: _216  and  _217
REMARK   76  A    between atoms: _216  and  _219
REMARK   77  A    between atoms: _219  and  _220
REMARK   78  A    between atoms: _225  and  _227
REMARK   79  A    between atoms: _227  and  _228
REMARK   80  A    between atoms: _227  and  _230
REMARK   81  A    between atoms: _230  and  _231
REMARK   82  A    between atoms: _237  and  _239
REMARK   83  A    between atoms: _239  and  _240
REMARK   84  A    between atoms: _239  and  _242
REMARK   85  A    between atoms: _245  and  _247
REMARK   86  A    between atoms: _247  and  _248
REMARK   87  A    between atoms: _247  and  _250
REMARK   88  A    between atoms: _250  and  _251
REMARK   89  A    between atoms: _254  and  _256
REMARK   90  A    between atoms: _256  and  _257
REMARK   91  A    between atoms: _260  and  _262
REMARK   92  A    between atoms: _262  and  _263
REMARK   93  A    between atoms: _262  and  _265
REMARK   94  A    between atoms: _268  and  _270
REMARK   95  A    between atoms: _270  and  _271
REMARK   96  A    between atoms: _270  and  _273
REMARK   97  A    between atoms: _273  and  _274
REMARK   98  A    between atoms: _277  and  _279
REMARK   99  A    between atoms: _279  and  _280
REMARK  100  A    between atoms: _282  and  _284
REMARK  101  A    between atoms: _284  and  _285
REMARK  102  A    between atoms: _287  and  _289
REMARK  103  A    between atoms: _289  and  _290
REMARK  104  A    between atoms: _289  and  _292
REMARK  105  A    between atoms: _292  and  _293
REMARK  106  A    between atoms: _295  and  _297
REMARK  107  A    between atoms: _297  and  _298
REMARK  108  A    between atoms: _297  and  _300
REMARK  109  A    between atoms: _300  and  _301
REMARK  110  A    between atoms: _304  and  _306
REMARK  111  A    between atoms: _306  and  _307
REMARK  112  A    between atoms: _306  and  _309
REMARK  113  A    between atoms: _309  and  _310
REMARK  114  A    between atoms: _313  and  _315
REMARK  115  A    between atoms: _315  and  _316
REMARK  116  A    between atoms: _315  and  _318
REMARK  117  A    between atoms: _318  and  _319
REMARK  118  A    between atoms: _323  and  _324
REMARK  119  A    between atoms: _330  and  _331
REMARK  120  A    between atoms: _336  and  _338
REMARK  121  A    between atoms: _338  and  _339
REMARK  122  A    between atoms: _338  and  _341
REMARK  123  A    between atoms: _341  and  _342
REMARK  124  A    between atoms: _345  and  _347
REMARK  125  A    between atoms: _347  and  _348
REMARK  126  A    between atoms: _347  and  _350
REMARK  127  A    between atoms: _350  and  _351
REMARK  128  A    between atoms: _354  and  _356
REMARK  129  A    between atoms: _356  and  _357
REMARK  130  A    between atoms: _356  and  _359
REMARK  131  A    between atoms: _361  and  _363
REMARK  132  A    between atoms: _363  and  _364
REMARK  133  A    between atoms: _363  and  _366
REMARK  134  A    between atoms: _369  and  _371
REMARK  135  A    between atoms: _371  and  _372
REMARK  136  A    between atoms: _371  and  _374
REMARK  137  A    between atoms: _374  and  _375
REMARK  138  A    between atoms: _385  and  _387
REMARK  139  A    between atoms: _387  and  _388
REMARK  140  A    between atoms: _387  and  _390
REMARK  141  A    between atoms: _390  and  _391
REMARK  142  A    between atoms: _396  and  _398
REMARK  143  A    between atoms: _398  and  _399
REMARK  144  A    between atoms: _398  and  _401
REMARK  145  A    between atoms: _401  and  _402
REMARK  146  A    between atoms: _402  and  _403
REMARK  147  A    between atoms: _403  and  _404
REMARK                            x       y       z     vdW  Elec       q    Type
REMARK                         _______ _______ _______ _____ _____    ______ ____
ROOT
ATOM      1  O   HOH     1      -0.644   3.824   7.492  0.00  0.00    +0.000 OA
ENDROOT
TORSDOF 0
REMARK  Name = ../refined-set-2016/3igp/3igp_pocket.pdb
REMARK  147 active torsions:
REMARK  status: ('A' for Active; 'I' for Inactive)
REMARK    1  A    between atoms: _1  and  _3
REMARK    2  A    between atoms: _3  and  _4
REMARK    3  A    between atoms: _3  and  _6
REMARK    4  A    between atoms: _6  and  _7
REMARK    5  A    between atoms: _17  and  _19
REMARK    6  A    between atoms: _19  and  _20
REMARK    7  A    between atoms: _19  and  _22
REMARK    8  A    between atoms: _22  and  _23
REMARK    9  A    between atoms: _28  and  _29
REMARK   10  A    between atoms: _31  and  _33
REMARK   11  A    between atoms: _33  and  _34
REMARK   12  A    between atoms: _33  and  _36
REMARK   13  A    between atoms: _36  and  _37
REMARK   14  A    between atoms: _40  and  _41
REMARK   15  A    between atoms: _46  and  _48
REMARK   16  A    between atoms: _48  and  _49
REMARK   17  A    between atoms: _48  and  _51
REMARK   18  A    between atoms: _51  and  _52
REMARK   19  A    between atoms: _57  and  _59
REMARK   20  A    between atoms: _59  and  _60
REMARK   21  A    between atoms: _59  and  _62
REMARK   22  A    between atoms: _62  and  _63
REMARK   23  A    between atoms: _68  and  _70
REMARK   24  A    between atoms: _70  and  _71
REMARK   25  A    between atoms: _70  and  _73
REMARK   26  A    between atoms: _73  and  _74
REMARK   27  A    between atoms: _79  and  _81
REMARK   28  A    between atoms: _81  and  _82
REMARK   29  A    between atoms: _81  and  _84
REMARK   30  A    between atoms: _84  and  _85
REMARK   31  A    between atoms: _88  and  _90
REMARK   32  A    between atoms: _90  and  _91
REMARK   33  A    between atoms: _90  and  _93
REMARK   34  A    between atoms: _93  and  _94
REMARK   35  A    between atoms: _94  and  _95
REMARK   36  A    between atoms: _100  and  _102
REMARK   37  A    between atoms: _102  and  _103
REMARK   38  A    between atoms: _102  and  _105
REMARK   39  A    between atoms: _105  and  _106
REMARK   40  A    between atoms: _112  and  _114
REMARK   41  A    between atoms: _125  and  _128
REMARK   42  A    between atoms: _128  and  _129
REMARK   43  A    between atoms: _137  and  _138
REMARK   44  A    between atoms: _146  and  _148
REMARK   45  A    between atoms: _148  and  _149
REMARK   46  A    between atoms: _148  and  _151
REMARK   47  A    between atoms: _151  and  _152
REMARK   48  A    between atoms: _152  and  _153
REMARK   49  A    between atoms: _156  and  _158
REMARK   50  A    between atoms: _158  and  _159
REMARK   51  A    between atoms: _158  and  _161
REMARK   52  A    between atoms: _161  and  _162
REMARK   53  A    between atoms: _167  and  _169
REMARK   54  A    between atoms: _169  and  _170
REMARK   55  A    between atoms: _169  and  _172
REMARK   56  A    between atoms: _172  and  _173
REMARK   57  A    between atoms: _173  and  _174
REMARK   58  A    between atoms: _177  and  _179
REMARK   59  A    between atoms: _179  and  _180
REMARK   60  A    between atoms: _179  and  _182
REMARK   61  A    between atoms: _182  and  _183
REMARK   62  A    between atoms: _186  and  _188
REMARK   63  A    between atoms: _188  and  _189
REMARK   64  A    between atoms: _188  and  _191
REMARK   65  A    between atoms: _191  and  _192
REMARK   66  A    between atoms: _193  and  ZN_413
REMARK   67  A    between atoms: _197  and  _199
REMARK   68  A    between atoms: _199  and  _200
REMARK   69  A    between atoms: _199  and  _202
REMARK   70  A    between atoms: _202  and  _203
REMARK   71  A    between atoms: _206  and  _208
REMARK   72  A    between atoms: _208  and  _209
REMARK   73  A    between atoms: _208  and  _211
REMARK   74  A    between atoms: _214  and  _216
REMARK   75  A    between atoms: _216  and  _217
REMARK   76  A    between atoms: _216  and  _219
REMARK   77  A    between atoms: _219  and  _220
REMARK   78  A    between atoms: _225  and  _227
REMARK   79  A    between atoms: _227  and  _228
REMARK   80  A    between atoms: _227  and  _230
REMARK   81  A    between atoms: _230  and  _231
REMARK   82  A    between atoms: _237  and  _239
REMARK   83  A    between atoms: _239  and  _240
REMARK   84  A    between atoms: _239  and  _242
REMARK   85  A    between atoms: _245  and  _247
REMARK   86  A    between atoms: _247  and  _248
REMARK   87  A    between atoms: _247  and  _250
REMARK   88  A    between atoms: _250  and  _251
REMARK   89  A    between atoms: _254  and  _256
REMARK   90  A    between atoms: _256  and  _257
REMARK   91  A    between atoms: _260  and  _262
REMARK   92  A    between atoms: _262  and  _263
REMARK   93  A    between atoms: _262  and  _265
REMARK   94  A    between atoms: _268  and  _270
REMARK   95  A    between atoms: _270  and  _271
REMARK   96  A    between atoms: _270  and  _273
REMARK   97  A    between atoms: _273  and  _274
REMARK   98  A    between atoms: _277  and  _279
REMARK   99  A    between atoms: _279  and  _280
REMARK  100  A    between atoms: _282  and  _284
REMARK  101  A    between atoms: _284  and  _285
REMARK  102  A    between atoms: _287  and  _289
REMARK  103  A    between atoms: _289  and  _290
REMARK  104  A    between atoms: _289  and  _292
REMARK  105  A    between atoms: _292  and  _293
REMARK  106  A    between atoms: _295  and  _297
REMARK  107  A    between atoms: _297  and  _298
REMARK  108  A    between atoms: _297  and  _300
REMARK  109  A    between atoms: _300  and  _301
REMARK  110  A    between atoms: _304  and  _306
REMARK  111  A    between atoms: _306  and  _307
REMARK  112  A    between atoms: _306  and  _309
REMARK  113  A    between atoms: _309  and  _310
REMARK  114  A    between atoms: _313  and  _315
REMARK  115  A    between atoms: _315  and  _316
REMARK  116  A    between atoms: _315  and  _318
REMARK  117  A    between atoms: _318  and  _319
REMARK  118  A    between atoms: _323  and  _324
REMARK  119  A    between atoms: _330  and  _331
REMARK  120  A    between atoms: _336  and  _338
REMARK  121  A    between atoms: _338  and  _339
REMARK  122  A    between atoms: _338  and  _341
REMARK  123  A    between atoms: _341  and  _342
REMARK  124  A    between atoms: _345  and  _347
REMARK  125  A    between atoms: _347  and  _348
REMARK  126  A    between atoms: _347  and  _350
REMARK  127  A    between atoms: _350  and  _351
REMARK  128  A    between atoms: _354  and  _356
REMARK  129  A    between atoms: _356  and  _357
REMARK  130  A    between atoms: _356  and  _359
REMARK  131  A    between atoms: _361  and  _363
REMARK  132  A    between atoms: _363  and  _364
REMARK  133  A    between atoms: _363  and  _366
REMARK  134  A    between atoms: _369  and  _371
REMARK  135  A    between atoms: _371  and  _372
REMARK  136  A    between atoms: _371  and  _374
REMARK  137  A    between atoms: _374  and  _375
REMARK  138  A    between atoms: _385  and  _387
REMARK  139  A    between atoms: _387  and  _388
REMARK  140  A    between atoms: _387  and  _390
REMARK  141  A    between atoms: _390  and  _391
REMARK  142  A    between atoms: _396  and  _398
REMARK  143  A    between atoms: _398  and  _399
REMARK  144  A    between atoms: _398  and  _401
REMARK  145  A    between atoms: _401  and  _402
REMARK  146  A    between atoms: _402  and  _403
REMARK  147  A    between atoms: _403  and  _404
REMARK                            x       y       z     vdW  Elec       q    Type
REMARK                         _______ _______ _______ _____ _____    ______ ____
ROOT
ATOM      1  O   HOH     1      -1.671   5.440   5.480  0.00  0.00    +0.000 OA
ENDROOT
TORSDOF 0
REMARK  Name = ../refined-set-2016/3igp/3igp_pocket.pdb
REMARK  147 active torsions:
REMARK  status: ('A' for Active; 'I' for Inactive)
REMARK    1  A    between atoms: _1  and  _3
REMARK    2  A    between atoms: _3  and  _4
REMARK    3  A    between atoms: _3  and  _6
REMARK    4  A    between atoms: _6  and  _7
REMARK    5  A    between atoms: _17  and  _19
REMARK    6  A    between atoms: _19  and  _20
REMARK    7  A    between atoms: _19  and  _22
REMARK    8  A    between atoms: _22  and  _23
REMARK    9  A    between atoms: _28  and  _29
REMARK   10  A    between atoms: _31  and  _33
REMARK   11  A    between atoms: _33  and  _34
REMARK   12  A    between atoms: _33  and  _36
REMARK   13  A    between atoms: _36  and  _37
REMARK   14  A    between atoms: _40  and  _41
REMARK   15  A    between atoms: _46  and  _48
REMARK   16  A    between atoms: _48  and  _49
REMARK   17  A    between atoms: _48  and  _51
REMARK   18  A    between atoms: _51  and  _52
REMARK   19  A    between atoms: _57  and  _59
REMARK   20  A    between atoms: _59  and  _60
REMARK   21  A    between atoms: _59  and  _62
REMARK   22  A    between atoms: _62  and  _63
REMARK   23  A    between atoms: _68  and  _70
REMARK   24  A    between atoms: _70  and  _71
REMARK   25  A    between atoms: _70  and  _73
REMARK   26  A    between atoms: _73  and  _74
REMARK   27  A    between atoms: _79  and  _81
REMARK   28  A    between atoms: _81  and  _82
REMARK   29  A    between atoms: _81  and  _84
REMARK   30  A    between atoms: _84  and  _85
REMARK   31  A    between atoms: _88  and  _90
REMARK   32  A    between atoms: _90  and  _91
REMARK   33  A    between atoms: _90  and  _93
REMARK   34  A    between atoms: _93  and  _94
REMARK   35  A    between atoms: _94  and  _95
REMARK   36  A    between atoms: _100  and  _102
REMARK   37  A    between atoms: _102  and  _103
REMARK   38  A    between atoms: _102  and  _105
REMARK   39  A    between atoms: _105  and  _106
REMARK   40  A    between atoms: _112  and  _114
REMARK   41  A    between atoms: _125  and  _128
REMARK   42  A    between atoms: _128  and  _129
REMARK   43  A    between atoms: _137  and  _138
REMARK   44  A    between atoms: _146  and  _148
REMARK   45  A    between atoms: _148  and  _149
REMARK   46  A    between atoms: _148  and  _151
REMARK   47  A    between atoms: _151  and  _152
REMARK   48  A    between atoms: _152  and  _153
REMARK   49  A    between atoms: _156  and  _158
REMARK   50  A    between atoms: _158  and  _159
REMARK   51  A    between atoms: _158  and  _161
REMARK   52  A    between atoms: _161  and  _162
REMARK   53  A    between atoms: _167  and  _169
REMARK   54  A    between atoms: _169  and  _170
REMARK   55  A    between atoms: _169  and  _172
REMARK   56  A    between atoms: _172  and  _173
REMARK   57  A    between atoms: _173  and  _174
REMARK   58  A    between atoms: _177  and  _179
REMARK   59  A    between atoms: _179  and  _180
REMARK   60  A    between atoms: _179  and  _182
REMARK   61  A    between atoms: _182  and  _183
REMARK   62  A    between atoms: _186  and  _188
REMARK   63  A    between atoms: _188  and  _189
REMARK   64  A    between atoms: _188  and  _191
REMARK   65  A    between atoms: _191  and  _192
REMARK   66  A    between atoms: _193  and  ZN_413
REMARK   67  A    between atoms: _197  and  _199
REMARK   68  A    between atoms: _199  and  _200
REMARK   69  A    between atoms: _199  and  _202
REMARK   70  A    between atoms: _202  and  _203
REMARK   71  A    between atoms: _206  and  _208
REMARK   72  A    between atoms: _208  and  _209
REMARK   73  A    between atoms: _208  and  _211
REMARK   74  A    between atoms: _214  and  _216
REMARK   75  A    between atoms: _216  and  _217
REMARK   76  A    between atoms: _216  and  _219
REMARK   77  A    between atoms: _219  and  _220
REMARK   78  A    between atoms: _225  and  _227
REMARK   79  A    between atoms: _227  and  _228
REMARK   80  A    between atoms: _227  and  _230
REMARK   81  A    between atoms: _230  and  _231
REMARK   82  A    between atoms: _237  and  _239
REMARK   83  A    between atoms: _239  and  _240
REMARK   84  A    between atoms: _239  and  _242
REMARK   85  A    between atoms: _245  and  _247
REMARK   86  A    between atoms: _247  and  _248
REMARK   87  A    between atoms: _247  and  _250
REMARK   88  A    between atoms: _250  and  _251
REMARK   89  A    between atoms: _254  and  _256
REMARK   90  A    between atoms: _256  and  _257
REMARK   91  A    between atoms: _260  and  _262
REMARK   92  A    between atoms: _262  and  _263
REMARK   93  A    between atoms: _262  and  _265
REMARK   94  A    between atoms: _268  and  _270
REMARK   95  A    between atoms: _270  and  _271
REMARK   96  A    between atoms: _270  and  _273
REMARK   97  A    between atoms: _273  and  _274
REMARK   98  A    between atoms: _277  and  _279
REMARK   99  A    between atoms: _279  and  _280
REMARK  100  A    between atoms: _282  and  _284
REMARK  101  A    between atoms: _284  and  _285
REMARK  102  A    between atoms: _287  and  _289
REMARK  103  A    between atoms: _289  and  _290
REMARK  104  A    between atoms: _289  and  _292
REMARK  105  A    between atoms: _292  and  _293
REMARK  106  A    between atoms: _295  and  _297
REMARK  107  A    between atoms: _297  and  _298
REMARK  108  A    between atoms: _297  and  _300
REMARK  109  A    between atoms: _300  and  _301
REMARK  110  A    between atoms: _304  and  _306
REMARK  111  A    between atoms: _306  and  _307
REMARK  112  A    between atoms: _306  and  _309
REMARK  113  A    between atoms: _309  and  _310
REMARK  114  A    between atoms: _313  and  _315
REMARK  115  A    between atoms: _315  and  _316
REMARK  116  A    between atoms: _315  and  _318
REMARK  117  A    between atoms: _318  and  _319
REMARK  118  A    between atoms: _323  and  _324
REMARK  119  A    between atoms: _330  and  _331
REMARK  120  A    between atoms: _336  and  _338
REMARK  121  A    between atoms: _338  and  _339
REMARK  122  A    between atoms: _338  and  _341
REMARK  123  A    between atoms: _341  and  _342
REMARK  124  A    between atoms: _345  and  _347
REMARK  125  A    between atoms: _347  and  _348
REMARK  126  A    between atoms: _347  and  _350
REMARK  127  A    between atoms: _350  and  _351
REMARK  128  A    between atoms: _354  and  _356
REMARK  129  A    between atoms: _356  and  _357
REMARK  130  A    between atoms: _356  and  _359
REMARK  131  A    between atoms: _361  and  _363
REMARK  132  A    between atoms: _363  and  _364
REMARK  133  A    between atoms: _363  and  _366
REMARK  134  A    between atoms: _369  and  _371
REMARK  135  A    between atoms: _371  and  _372
REMARK  136  A    between atoms: _371  and  _374
REMARK  137  A    between atoms: _374  and  _375
REMARK  138  A    between atoms: _385  and  _387
REMARK  139  A    between atoms: _387  and  _388
REMARK  140  A    between atoms: _387  and  _390
REMARK  141  A    between atoms: _390  and  _391
REMARK  142  A    between atoms: _396  and  _398
REMARK  143  A    between atoms: _398  and  _399
REMARK  144  A    between atoms: _398  and  _401
REMARK  145  A    between atoms: _401  and  _402
REMARK  146  A    between atoms: _402  and  _403
REMARK  147  A    between atoms: _403  and  _404
REMARK                            x       y       z     vdW  Elec       q    Type
REMARK                         _______ _______ _______ _____ _____    ______ ____
ROOT
ATOM      1  O   HOH     1      -3.652   4.610   6.787  0.00  0.00    +0.000 OA
ENDROOT
TORSDOF 0
REMARK  Name = ../refined-set-2016/3igp/3igp_pocket.pdb
REMARK  147 active torsions:
REMARK  status: ('A' for Active; 'I' for Inactive)
REMARK    1  A    between atoms: _1  and  _3
REMARK    2  A    between atoms: _3  and  _4
REMARK    3  A    between atoms: _3  and  _6
REMARK    4  A    between atoms: _6  and  _7
REMARK    5  A    between atoms: _17  and  _19
REMARK    6  A    between atoms: _19  and  _20
REMARK    7  A    between atoms: _19  and  _22
REMARK    8  A    between atoms: _22  and  _23
REMARK    9  A    between atoms: _28  and  _29
REMARK   10  A    between atoms: _31  and  _33
REMARK   11  A    between atoms: _33  and  _34
REMARK   12  A    between atoms: _33  and  _36
REMARK   13  A    between atoms: _36  and  _37
REMARK   14  A    between atoms: _40  and  _41
REMARK   15  A    between atoms: _46  and  _48
REMARK   16  A    between atoms: _48  and  _49
REMARK   17  A    between atoms: _48  and  _51
REMARK   18  A    between atoms: _51  and  _52
REMARK   19  A    between atoms: _57  and  _59
REMARK   20  A    between atoms: _59  and  _60
REMARK   21  A    between atoms: _59  and  _62
REMARK   22  A    between atoms: _62  and  _63
REMARK   23  A    between atoms: _68  and  _70
REMARK   24  A    between atoms: _70  and  _71
REMARK   25  A    between atoms: _70  and  _73
REMARK   26  A    between atoms: _73  and  _74
REMARK   27  A    between atoms: _79  and  _81
REMARK   28  A    between atoms: _81  and  _82
REMARK   29  A    between atoms: _81  and  _84
REMARK   30  A    between atoms: _84  and  _85
REMARK   31  A    between atoms: _88  and  _90
REMARK   32  A    between atoms: _90  and  _91
REMARK   33  A    between atoms: _90  and  _93
REMARK   34  A    between atoms: _93  and  _94
REMARK   35  A    between atoms: _94  and  _95
REMARK   36  A    between atoms: _100  and  _102
REMARK   37  A    between atoms: _102  and  _103
REMARK   38  A    between atoms: _102  and  _105
REMARK   39  A    between atoms: _105  and  _106
REMARK   40  A    between atoms: _112  and  _114
REMARK   41  A    between atoms: _125  and  _128
REMARK   42  A    between atoms: _128  and  _129
REMARK   43  A    between atoms: _137  and  _138
REMARK   44  A    between atoms: _146  and  _148
REMARK   45  A    between atoms: _148  and  _149
REMARK   46  A    between atoms: _148  and  _151
REMARK   47  A    between atoms: _151  and  _152
REMARK   48  A    between atoms: _152  and  _153
REMARK   49  A    between atoms: _156  and  _158
REMARK   50  A    between atoms: _158  and  _159
REMARK   51  A    between atoms: _158  and  _161
REMARK   52  A    between atoms: _161  and  _162
REMARK   53  A    between atoms: _167  and  _169
REMARK   54  A    between atoms: _169  and  _170
REMARK   55  A    between atoms: _169  and  _172
REMARK   56  A    between atoms: _172  and  _173
REMARK   57  A    between atoms: _173  and  _174
REMARK   58  A    between atoms: _177  and  _179
REMARK   59  A    between atoms: _179  and  _180
REMARK   60  A    between atoms: _179  and  _182
REMARK   61  A    between atoms: _182  and  _183
REMARK   62  A    between atoms: _186  and  _188
REMARK   63  A    between atoms: _188  and  _189
REMARK   64  A    between atoms: _188  and  _191
REMARK   65  A    between atoms: _191  and  _192
REMARK   66  A    between atoms: _193  and  ZN_413
REMARK   67  A    between atoms: _197  and  _199
REMARK   68  A    between atoms: _199  and  _200
REMARK   69  A    between atoms: _199  and  _202
REMARK   70  A    between atoms: _202  and  _203
REMARK   71  A    between atoms: _206  and  _208
REMARK   72  A    between atoms: _208  and  _209
REMARK   73  A    between atoms: _208  and  _211
REMARK   74  A    between atoms: _214  and  _216
REMARK   75  A    between atoms: _216  and  _217
REMARK   76  A    between atoms: _216  and  _219
REMARK   77  A    between atoms: _219  and  _220
REMARK   78  A    between atoms: _225  and  _227
REMARK   79  A    between atoms: _227  and  _228
REMARK   80  A    between atoms: _227  and  _230
REMARK   81  A    between atoms: _230  and  _231
REMARK   82  A    between atoms: _237  and  _239
REMARK   83  A    between atoms: _239  and  _240
REMARK   84  A    between atoms: _239  and  _242
REMARK   85  A    between atoms: _245  and  _247
REMARK   86  A    between atoms: _247  and  _248
REMARK   87  A    between atoms: _247  and  _250
REMARK   88  A    between atoms: _250  and  _251
REMARK   89  A    between atoms: _254  and  _256
REMARK   90  A    between atoms: _256  and  _257
REMARK   91  A    between atoms: _260  and  _262
REMARK   92  A    between atoms: _262  and  _263
REMARK   93  A    between atoms: _262  and  _265
REMARK   94  A    between atoms: _268  and  _270
REMARK   95  A    between atoms: _270  and  _271
REMARK   96  A    between atoms: _270  and  _273
REMARK   97  A    between atoms: _273  and  _274
REMARK   98  A    between atoms: _277  and  _279
REMARK   99  A    between atoms: _279  and  _280
REMARK  100  A    between atoms: _282  and  _284
REMARK  101  A    between atoms: _284  and  _285
REMARK  102  A    between atoms: _287  and  _289
REMARK  103  A    between atoms: _289  and  _290
REMARK  104  A    between atoms: _289  and  _292
REMARK  105  A    between atoms: _292  and  _293
REMARK  106  A    between atoms: _295  and  _297
REMARK  107  A    between atoms: _297  and  _298
REMARK  108  A    between atoms: _297  and  _300
REMARK  109  A    between atoms: _300  and  _301
REMARK  110  A    between atoms: _304  and  _306
REMARK  111  A    between atoms: _306  and  _307
REMARK  112  A    between atoms: _306  and  _309
REMARK  113  A    between atoms: _309  and  _310
REMARK  114  A    between atoms: _313  and  _315
REMARK  115  A    between atoms: _315  and  _316
REMARK  116  A    between atoms: _315  and  _318
REMARK  117  A    between atoms: _318  and  _319
REMARK  118  A    between atoms: _323  and  _324
REMARK  119  A    between atoms: _330  and  _331
REMARK  120  A    between atoms: _336  and  _338
REMARK  121  A    between atoms: _338  and  _339
REMARK  122  A    between atoms: _338  and  _341
REMARK  123  A    between atoms: _341  and  _342
REMARK  124  A    between atoms: _345  and  _347
REMARK  125  A    between atoms: _347  and  _348
REMARK  126  A    between atoms: _347  and  _350
REMARK  127  A    between atoms: _350  and  _351
REMARK  128  A    between atoms: _354  and  _356
REMARK  129  A    between atoms: _356  and  _357
REMARK  130  A    between atoms: _356  and  _359
REMARK  131  A    between atoms: _361  and  _363
REMARK  132  A    between atoms: _363  and  _364
REMARK  133  A    between atoms: _363  and  _366
REMARK  134  A    between atoms: _369  and  _371
REMARK  135  A    between atoms: _371  and  _372
REMARK  136  A    between atoms: _371  and  _374
REMARK  137  A    between atoms: _374  and  _375
REMARK  138  A    between atoms: _385  and  _387
REMARK  139  A    between atoms: _387  and  _388
REMARK  140  A    between atoms: _387  and  _390
REMARK  141  A    between atoms: _390  and  _391
REMARK  142  A    between atoms: _396  and  _398
REMARK  143  A    between atoms: _398  and  _399
REMARK  144  A    between atoms: _398  and  _401
REMARK  145  A    between atoms: _401  and  _402
REMARK  146  A    between atoms: _402  and  _403
REMARK  147  A    between atoms: _403  and  _404
REMARK                            x       y       z     vdW  Elec       q    Type
REMARK                         _______ _______ _______ _____ _____    ______ ____
ROOT
ATOM      1  O   HOH     1     -10.751   8.565   7.825  0.00  0.00    +0.000 OA
ENDROOT
TORSDOF 0
REMARK  Name = ../refined-set-2016/3igp/3igp_pocket.pdb
REMARK  147 active torsions:
REMARK  status: ('A' for Active; 'I' for Inactive)
REMARK    1  A    between atoms: _1  and  _3
REMARK    2  A    between atoms: _3  and  _4
REMARK    3  A    between atoms: _3  and  _6
REMARK    4  A    between atoms: _6  and  _7
REMARK    5  A    between atoms: _17  and  _19
REMARK    6  A    between atoms: _19  and  _20
REMARK    7  A    between atoms: _19  and  _22
REMARK    8  A    between atoms: _22  and  _23
REMARK    9  A    between atoms: _28  and  _29
REMARK   10  A    between atoms: _31  and  _33
REMARK   11  A    between atoms: _33  and  _34
REMARK   12  A    between atoms: _33  and  _36
REMARK   13  A    between atoms: _36  and  _37
REMARK   14  A    between atoms: _40  and  _41
REMARK   15  A    between atoms: _46  and  _48
REMARK   16  A    between atoms: _48  and  _49
REMARK   17  A    between atoms: _48  and  _51
REMARK   18  A    between atoms: _51  and  _52
REMARK   19  A    between atoms: _57  and  _59
REMARK   20  A    between atoms: _59  and  _60
REMARK   21  A    between atoms: _59  and  _62
REMARK   22  A    between atoms: _62  and  _63
REMARK   23  A    between atoms: _68  and  _70
REMARK   24  A    between atoms: _70  and  _71
REMARK   25  A    between atoms: _70  and  _73
REMARK   26  A    between atoms: _73  and  _74
REMARK   27  A    between atoms: _79  and  _81
REMARK   28  A    between atoms: _81  and  _82
REMARK   29  A    between atoms: _81  and  _84
REMARK   30  A    between atoms: _84  and  _85
REMARK   31  A    between atoms: _88  and  _90
REMARK   32  A    between atoms: _90  and  _91
REMARK   33  A    between atoms: _90  and  _93
REMARK   34  A    between atoms: _93  and  _94
REMARK   35  A    between atoms: _94  and  _95
REMARK   36  A    between atoms: _100  and  _102
REMARK   37  A    between atoms: _102  and  _103
REMARK   38  A    between atoms: _102  and  _105
REMARK   39  A    between atoms: _105  and  _106
REMARK   40  A    between atoms: _112  and  _114
REMARK   41  A    between atoms: _125  and  _128
REMARK   42  A    between atoms: _128  and  _129
REMARK   43  A    between atoms: _137  and  _138
REMARK   44  A    between atoms: _146  and  _148
REMARK   45  A    between atoms: _148  and  _149
REMARK   46  A    between atoms: _148  and  _151
REMARK   47  A    between atoms: _151  and  _152
REMARK   48  A    between atoms: _152  and  _153
REMARK   49  A    between atoms: _156  and  _158
REMARK   50  A    between atoms: _158  and  _159
REMARK   51  A    between atoms: _158  and  _161
REMARK   52  A    between atoms: _161  and  _162
REMARK   53  A    between atoms: _167  and  _169
REMARK   54  A    between atoms: _169  and  _170
REMARK   55  A    between atoms: _169  and  _172
REMARK   56  A    between atoms: _172  and  _173
REMARK   57  A    between atoms: _173  and  _174
REMARK   58  A    between atoms: _177  and  _179
REMARK   59  A    between atoms: _179  and  _180
REMARK   60  A    between atoms: _179  and  _182
REMARK   61  A    between atoms: _182  and  _183
REMARK   62  A    between atoms: _186  and  _188
REMARK   63  A    between atoms: _188  and  _189
REMARK   64  A    between atoms: _188  and  _191
REMARK   65  A    between atoms: _191  and  _192
REMARK   66  A    between atoms: _193  and  ZN_413
REMARK   67  A    between atoms: _197  and  _199
REMARK   68  A    between atoms: _199  and  _200
REMARK   69  A    between atoms: _199  and  _202
REMARK   70  A    between atoms: _202  and  _203
REMARK   71  A    between atoms: _206  and  _208
REMARK   72  A    between atoms: _208  and  _209
REMARK   73  A    between atoms: _208  and  _211
REMARK   74  A    between atoms: _214  and  _216
REMARK   75  A    between atoms: _216  and  _217
REMARK   76  A    between atoms: _216  and  _219
REMARK   77  A    between atoms: _219  and  _220
REMARK   78  A    between atoms: _225  and  _227
REMARK   79  A    between atoms: _227  and  _228
REMARK   80  A    between atoms: _227  and  _230
REMARK   81  A    between atoms: _230  and  _231
REMARK   82  A    between atoms: _237  and  _239
REMARK   83  A    between atoms: _239  and  _240
REMARK   84  A    between atoms: _239  and  _242
REMARK   85  A    between atoms: _245  and  _247
REMARK   86  A    between atoms: _247  and  _248
REMARK   87  A    between atoms: _247  and  _250
REMARK   88  A    between atoms: _250  and  _251
REMARK   89  A    between atoms: _254  and  _256
REMARK   90  A    between atoms: _256  and  _257
REMARK   91  A    between atoms: _260  and  _262
REMARK   92  A    between atoms: _262  and  _263
REMARK   93  A    between atoms: _262  and  _265
REMARK   94  A    between atoms: _268  and  _270
REMARK   95  A    between atoms: _270  and  _271
REMARK   96  A    between atoms: _270  and  _273
REMARK   97  A    between atoms: _273  and  _274
REMARK   98  A    between atoms: _277  and  _279
REMARK   99  A    between atoms: _279  and  _280
REMARK  100  A    between atoms: _282  and  _284
REMARK  101  A    between atoms: _284  and  _285
REMARK  102  A    between atoms: _287  and  _289
REMARK  103  A    between atoms: _289  and  _290
REMARK  104  A    between atoms: _289  and  _292
REMARK  105  A    between atoms: _292  and  _293
REMARK  106  A    between atoms: _295  and  _297
REMARK  107  A    between atoms: _297  and  _298
REMARK  108  A    between atoms: _297  and  _300
REMARK  109  A    between atoms: _300  and  _301
REMARK  110  A    between atoms: _304  and  _306
REMARK  111  A    between atoms: _306  and  _307
REMARK  112  A    between atoms: _306  and  _309
REMARK  113  A    between atoms: _309  and  _310
REMARK  114  A    between atoms: _313  and  _315
REMARK  115  A    between atoms: _315  and  _316
REMARK  116  A    between atoms: _315  and  _318
REMARK  117  A    between atoms: _318  and  _319
REMARK  118  A    between atoms: _323  and  _324
REMARK  119  A    between atoms: _330  and  _331
REMARK  120  A    between atoms: _336  and  _338
REMARK  121  A    between atoms: _338  and  _339
REMARK  122  A    between atoms: _338  and  _341
REMARK  123  A    between atoms: _341  and  _342
REMARK  124  A    between atoms: _345  and  _347
REMARK  125  A    between atoms: _347  and  _348
REMARK  126  A    between atoms: _347  and  _350
REMARK  127  A    between atoms: _350  and  _351
REMARK  128  A    between atoms: _354  and  _356
REMARK  129  A    between atoms: _356  and  _357
REMARK  130  A    between atoms: _356  and  _359
REMARK  131  A    between atoms: _361  and  _363
REMARK  132  A    between atoms: _363  and  _364
REMARK  133  A    between atoms: _363  and  _366
REMARK  134  A    between atoms: _369  and  _371
REMARK  135  A    between atoms: _371  and  _372
REMARK  136  A    between atoms: _371  and  _374
REMARK  137  A    between atoms: _374  and  _375
REMARK  138  A    between atoms: _385  and  _387
REMARK  139  A    between atoms: _387  and  _388
REMARK  140  A    between atoms: _387  and  _390
REMARK  141  A    between atoms: _390  and  _391
REMARK  142  A    between atoms: _396  and  _398
REMARK  143  A    between atoms: _398  and  _399
REMARK  144  A    between atoms: _398  and  _401
REMARK  145  A    between atoms: _401  and  _402
REMARK  146  A    between atoms: _402  and  _403
REMARK  147  A    between atoms: _403  and  _404
REMARK                            x       y       z     vdW  Elec       q    Type
REMARK                         _______ _______ _______ _____ _____    ______ ____
ROOT
ATOM      1  O   HOH     1      -8.216   7.582   8.696  0.00  0.00    +0.000 OA
ENDROOT
TORSDOF 0
REMARK  Name = ../refined-set-2016/3igp/3igp_pocket.pdb
REMARK  147 active torsions:
REMARK  status: ('A' for Active; 'I' for Inactive)
REMARK    1  A    between atoms: _1  and  _3
REMARK    2  A    between atoms: _3  and  _4
REMARK    3  A    between atoms: _3  and  _6
REMARK    4  A    between atoms: _6  and  _7
REMARK    5  A    between atoms: _17  and  _19
REMARK    6  A    between atoms: _19  and  _20
REMARK    7  A    between atoms: _19  and  _22
REMARK    8  A    between atoms: _22  and  _23
REMARK    9  A    between atoms: _28  and  _29
REMARK   10  A    between atoms: _31  and  _33
REMARK   11  A    between atoms: _33  and  _34
REMARK   12  A    between atoms: _33  and  _36
REMARK   13  A    between atoms: _36  and  _37
REMARK   14  A    between atoms: _40  and  _41
REMARK   15  A    between atoms: _46  and  _48
REMARK   16  A    between atoms: _48  and  _49
REMARK   17  A    between atoms: _48  and  _51
REMARK   18  A    between atoms: _51  and  _52
REMARK   19  A    between atoms: _57  and  _59
REMARK   20  A    between atoms: _59  and  _60
REMARK   21  A    between atoms: _59  and  _62
REMARK   22  A    between atoms: _62  and  _63
REMARK   23  A    between atoms: _68  and  _70
REMARK   24  A    between atoms: _70  and  _71
REMARK   25  A    between atoms: _70  and  _73
REMARK   26  A    between atoms: _73  and  _74
REMARK   27  A    between atoms: _79  and  _81
REMARK   28  A    between atoms: _81  and  _82
REMARK   29  A    between atoms: _81  and  _84
REMARK   30  A    between atoms: _84  and  _85
REMARK   31  A    between atoms: _88  and  _90
REMARK   32  A    between atoms: _90  and  _91
REMARK   33  A    between atoms: _90  and  _93
REMARK   34  A    between atoms: _93  and  _94
REMARK   35  A    between atoms: _94  and  _95
REMARK   36  A    between atoms: _100  and  _102
REMARK   37  A    between atoms: _102  and  _103
REMARK   38  A    between atoms: _102  and  _105
REMARK   39  A    between atoms: _105  and  _106
REMARK   40  A    between atoms: _112  and  _114
REMARK   41  A    between atoms: _125  and  _128
REMARK   42  A    between atoms: _128  and  _129
REMARK   43  A    between atoms: _137  and  _138
REMARK   44  A    between atoms: _146  and  _148
REMARK   45  A    between atoms: _148  and  _149
REMARK   46  A    between atoms: _148  and  _151
REMARK   47  A    between atoms: _151  and  _152
REMARK   48  A    between atoms: _152  and  _153
REMARK   49  A    between atoms: _156  and  _158
REMARK   50  A    between atoms: _158  and  _159
REMARK   51  A    between atoms: _158  and  _161
REMARK   52  A    between atoms: _161  and  _162
REMARK   53  A    between atoms: _167  and  _169
REMARK   54  A    between atoms: _169  and  _170
REMARK   55  A    between atoms: _169  and  _172
REMARK   56  A    between atoms: _172  and  _173
REMARK   57  A    between atoms: _173  and  _174
REMARK   58  A    between atoms: _177  and  _179
REMARK   59  A    between atoms: _179  and  _180
REMARK   60  A    between atoms: _179  and  _182
REMARK   61  A    between atoms: _182  and  _183
REMARK   62  A    between atoms: _186  and  _188
REMARK   63  A    between atoms: _188  and  _189
REMARK   64  A    between atoms: _188  and  _191
REMARK   65  A    between atoms: _191  and  _192
REMARK   66  A    between atoms: _193  and  ZN_413
REMARK   67  A    between atoms: _197  and  _199
REMARK   68  A    between atoms: _199  and  _200
REMARK   69  A    between atoms: _199  and  _202
REMARK   70  A    between atoms: _202  and  _203
REMARK   71  A    between atoms: _206  and  _208
REMARK   72  A    between atoms: _208  and  _209
REMARK   73  A    between atoms: _208  and  _211
REMARK   74  A    between atoms: _214  and  _216
REMARK   75  A    between atoms: _216  and  _217
REMARK   76  A    between atoms: _216  and  _219
REMARK   77  A    between atoms: _219  and  _220
REMARK   78  A    between atoms: _225  and  _227
REMARK   79  A    between atoms: _227  and  _228
REMARK   80  A    between atoms: _227  and  _230
REMARK   81  A    between atoms: _230  and  _231
REMARK   82  A    between atoms: _237  and  _239
REMARK   83  A    between atoms: _239  and  _240
REMARK   84  A    between atoms: _239  and  _242
REMARK   85  A    between atoms: _245  and  _247
REMARK   86  A    between atoms: _247  and  _248
REMARK   87  A    between atoms: _247  and  _250
REMARK   88  A    between atoms: _250  and  _251
REMARK   89  A    between atoms: _254  and  _256
REMARK   90  A    between atoms: _256  and  _257
REMARK   91  A    between atoms: _260  and  _262
REMARK   92  A    between atoms: _262  and  _263
REMARK   93  A    between atoms: _262  and  _265
REMARK   94  A    between atoms: _268  and  _270
REMARK   95  A    between atoms: _270  and  _271
REMARK   96  A    between atoms: _270  and  _273
REMARK   97  A    between atoms: _273  and  _274
REMARK   98  A    between atoms: _277  and  _279
REMARK   99  A    between atoms: _279  and  _280
REMARK  100  A    between atoms: _282  and  _284
REMARK  101  A    between atoms: _284  and  _285
REMARK  102  A    between atoms: _287  and  _289
REMARK  103  A    between atoms: _289  and  _290
REMARK  104  A    between atoms: _289  and  _292
REMARK  105  A    between atoms: _292  and  _293
REMARK  106  A    between atoms: _295  and  _297
REMARK  107  A    between atoms: _297  and  _298
REMARK  108  A    between atoms: _297  and  _300
REMARK  109  A    between atoms: _300  and  _301
REMARK  110  A    between atoms: _304  and  _306
REMARK  111  A    between atoms: _306  and  _307
REMARK  112  A    between atoms: _306  and  _309
REMARK  113  A    between atoms: _309  and  _310
REMARK  114  A    between atoms: _313  and  _315
REMARK  115  A    between atoms: _315  and  _316
REMARK  116  A    between atoms: _315  and  _318
REMARK  117  A    between atoms: _318  and  _319
REMARK  118  A    between atoms: _323  and  _324
REMARK  119  A    between atoms: _330  and  _331
REMARK  120  A    between atoms: _336  and  _338
REMARK  121  A    between atoms: _338  and  _339
REMARK  122  A    between atoms: _338  and  _341
REMARK  123  A    between atoms: _341  and  _342
REMARK  124  A    between atoms: _345  and  _347
REMARK  125  A    between atoms: _347  and  _348
REMARK  126  A    between atoms: _347  and  _350
REMARK  127  A    between atoms: _350  and  _351
REMARK  128  A    between atoms: _354  and  _356
REMARK  129  A    between atoms: _356  and  _357
REMARK  130  A    between atoms: _356  and  _359
REMARK  131  A    between atoms: _361  and  _363
REMARK  132  A    between atoms: _363  and  _364
REMARK  133  A    between atoms: _363  and  _366
REMARK  134  A    between atoms: _369  and  _371
REMARK  135  A    between atoms: _371  and  _372
REMARK  136  A    between atoms: _371  and  _374
REMARK  137  A    between atoms: _374  and  _375
REMARK  138  A    between atoms: _385  and  _387
REMARK  139  A    between atoms: _387  and  _388
REMARK  140  A    between atoms: _387  and  _390
REMARK  141  A    between atoms: _390  and  _391
REMARK  142  A    between atoms: _396  and  _398
REMARK  143  A    between atoms: _398  and  _399
REMARK  144  A    between atoms: _398  and  _401
REMARK  145  A    between atoms: _401  and  _402
REMARK  146  A    between atoms: _402  and  _403
REMARK  147  A    between atoms: _403  and  _404
REMARK                            x       y       z     vdW  Elec       q    Type
REMARK                         _______ _______ _______ _____ _____    ______ ____
ROOT
ATOM      1  O   HOH     1      -7.050   6.802  11.343  0.00  0.00    +0.000 OA
ENDROOT
TORSDOF 0
REMARK  Name = ../refined-set-2016/3igp/3igp_pocket.pdb
REMARK  147 active torsions:
REMARK  status: ('A' for Active; 'I' for Inactive)
REMARK    1  A    between atoms: _1  and  _3
REMARK    2  A    between atoms: _3  and  _4
REMARK    3  A    between atoms: _3  and  _6
REMARK    4  A    between atoms: _6  and  _7
REMARK    5  A    between atoms: _17  and  _19
REMARK    6  A    between atoms: _19  and  _20
REMARK    7  A    between atoms: _19  and  _22
REMARK    8  A    between atoms: _22  and  _23
REMARK    9  A    between atoms: _28  and  _29
REMARK   10  A    between atoms: _31  and  _33
REMARK   11  A    between atoms: _33  and  _34
REMARK   12  A    between atoms: _33  and  _36
REMARK   13  A    between atoms: _36  and  _37
REMARK   14  A    between atoms: _40  and  _41
REMARK   15  A    between atoms: _46  and  _48
REMARK   16  A    between atoms: _48  and  _49
REMARK   17  A    between atoms: _48  and  _51
REMARK   18  A    between atoms: _51  and  _52
REMARK   19  A    between atoms: _57  and  _59
REMARK   20  A    between atoms: _59  and  _60
REMARK   21  A    between atoms: _59  and  _62
REMARK   22  A    between atoms: _62  and  _63
REMARK   23  A    between atoms: _68  and  _70
REMARK   24  A    between atoms: _70  and  _71
REMARK   25  A    between atoms: _70  and  _73
REMARK   26  A    between atoms: _73  and  _74
REMARK   27  A    between atoms: _79  and  _81
REMARK   28  A    between atoms: _81  and  _82
REMARK   29  A    between atoms: _81  and  _84
REMARK   30  A    between atoms: _84  and  _85
REMARK   31  A    between atoms: _88  and  _90
REMARK   32  A    between atoms: _90  and  _91
REMARK   33  A    between atoms: _90  and  _93
REMARK   34  A    between atoms: _93  and  _94
REMARK   35  A    between atoms: _94  and  _95
REMARK   36  A    between atoms: _100  and  _102
REMARK   37  A    between atoms: _102  and  _103
REMARK   38  A    between atoms: _102  and  _105
REMARK   39  A    between atoms: _105  and  _106
REMARK   40  A    between atoms: _112  and  _114
REMARK   41  A    between atoms: _125  and  _128
REMARK   42  A    between atoms: _128  and  _129
REMARK   43  A    between atoms: _137  and  _138
REMARK   44  A    between atoms: _146  and  _148
REMARK   45  A    between atoms: _148  and  _149
REMARK   46  A    between atoms: _148  and  _151
REMARK   47  A    between atoms: _151  and  _152
REMARK   48  A    between atoms: _152  and  _153
REMARK   49  A    between atoms: _156  and  _158
REMARK   50  A    between atoms: _158  and  _159
REMARK   51  A    between atoms: _158  and  _161
REMARK   52  A    between atoms: _161  and  _162
REMARK   53  A    between atoms: _167  and  _169
REMARK   54  A    between atoms: _169  and  _170
REMARK   55  A    between atoms: _169  and  _172
REMARK   56  A    between atoms: _172  and  _173
REMARK   57  A    between atoms: _173  and  _174
REMARK   58  A    between atoms: _177  and  _179
REMARK   59  A    between atoms: _179  and  _180
REMARK   60  A    between atoms: _179  and  _182
REMARK   61  A    between atoms: _182  and  _183
REMARK   62  A    between atoms: _186  and  _188
REMARK   63  A    between atoms: _188  and  _189
REMARK   64  A    between atoms: _188  and  _191
REMARK   65  A    between atoms: _191  and  _192
REMARK   66  A    between atoms: _193  and  ZN_413
REMARK   67  A    between atoms: _197  and  _199
REMARK   68  A    between atoms: _199  and  _200
REMARK   69  A    between atoms: _199  and  _202
REMARK   70  A    between atoms: _202  and  _203
REMARK   71  A    between atoms: _206  and  _208
REMARK   72  A    between atoms: _208  and  _209
REMARK   73  A    between atoms: _208  and  _211
REMARK   74  A    between atoms: _214  and  _216
REMARK   75  A    between atoms: _216  and  _217
REMARK   76  A    between atoms: _216  and  _219
REMARK   77  A    between atoms: _219  and  _220
REMARK   78  A    between atoms: _225  and  _227
REMARK   79  A    between atoms: _227  and  _228
REMARK   80  A    between atoms: _227  and  _230
REMARK   81  A    between atoms: _230  and  _231
REMARK   82  A    between atoms: _237  and  _239
REMARK   83  A    between atoms: _239  and  _240
REMARK   84  A    between atoms: _239  and  _242
REMARK   85  A    between atoms: _245  and  _247
REMARK   86  A    between atoms: _247  and  _248
REMARK   87  A    between atoms: _247  and  _250
REMARK   88  A    between atoms: _250  and  _251
REMARK   89  A    between atoms: _254  and  _256
REMARK   90  A    between atoms: _256  and  _257
REMARK   91  A    between atoms: _260  and  _262
REMARK   92  A    between atoms: _262  and  _263
REMARK   93  A    between atoms: _262  and  _265
REMARK   94  A    between atoms: _268  and  _270
REMARK   95  A    between atoms: _270  and  _271
REMARK   96  A    between atoms: _270  and  _273
REMARK   97  A    between atoms: _273  and  _274
REMARK   98  A    between atoms: _277  and  _279
REMARK   99  A    between atoms: _279  and  _280
REMARK  100  A    between atoms: _282  and  _284
REMARK  101  A    between atoms: _284  and  _285
REMARK  102  A    between atoms: _287  and  _289
REMARK  103  A    between atoms: _289  and  _290
REMARK  104  A    between atoms: _289  and  _292
REMARK  105  A    between atoms: _292  and  _293
REMARK  106  A    between atoms: _295  and  _297
REMARK  107  A    between atoms: _297  and  _298
REMARK  108  A    between atoms: _297  and  _300
REMARK  109  A    between atoms: _300  and  _301
REMARK  110  A    between atoms: _304  and  _306
REMARK  111  A    between atoms: _306  and  _307
REMARK  112  A    between atoms: _306  and  _309
REMARK  113  A    between atoms: _309  and  _310
REMARK  114  A    between atoms: _313  and  _315
REMARK  115  A    between atoms: _315  and  _316
REMARK  116  A    between atoms: _315  and  _318
REMARK  117  A    between atoms: _318  and  _319
REMARK  118  A    between atoms: _323  and  _324
REMARK  119  A    between atoms: _330  and  _331
REMARK  120  A    between atoms: _336  and  _338
REMARK  121  A    between atoms: _338  and  _339
REMARK  122  A    between atoms: _338  and  _341
REMARK  123  A    between atoms: _341  and  _342
REMARK  124  A    between atoms: _345  and  _347
REMARK  125  A    between atoms: _347  and  _348
REMARK  126  A    between atoms: _347  and  _350
REMARK  127  A    between atoms: _350  and  _351
REMARK  128  A    between atoms: _354  and  _356
REMARK  129  A    between atoms: _356  and  _357
REMARK  130  A    between atoms: _356  and  _359
REMARK  131  A    between atoms: _361  and  _363
REMARK  132  A    between atoms: _363  and  _364
REMARK  133  A    between atoms: _363  and  _366
REMARK  134  A    between atoms: _369  and  _371
REMARK  135  A    between atoms: _371  and  _372
REMARK  136  A    between atoms: _371  and  _374
REMARK  137  A    between atoms: _374  and  _375
REMARK  138  A    between atoms: _385  and  _387
REMARK  139  A    between atoms: _387  and  _388
REMARK  140  A    between atoms: _387  and  _390
REMARK  141  A    between atoms: _390  and  _391
REMARK  142  A    between atoms: _396  and  _398
REMARK  143  A    between atoms: _398  and  _399
REMARK  144  A    between atoms: _398  and  _401
REMARK  145  A    between atoms: _401  and  _402
REMARK  146  A    between atoms: _402  and  _403
REMARK  147  A    between atoms: _403  and  _404
REMARK                            x       y       z     vdW  Elec       q    Type
REMARK                         _______ _______ _______ _____ _____    ______ ____
ROOT
ATOM      1  O   HOH     1      -3.084   4.859   9.443  0.00  0.00    +0.000 OA
ENDROOT
TORSDOF 0
REMARK  Name = ../refined-set-2016/3igp/3igp_pocket.pdb
REMARK  147 active torsions:
REMARK  status: ('A' for Active; 'I' for Inactive)
REMARK    1  A    between atoms: _1  and  _3
REMARK    2  A    between atoms: _3  and  _4
REMARK    3  A    between atoms: _3  and  _6
REMARK    4  A    between atoms: _6  and  _7
REMARK    5  A    between atoms: _17  and  _19
REMARK    6  A    between atoms: _19  and  _20
REMARK    7  A    between atoms: _19  and  _22
REMARK    8  A    between atoms: _22  and  _23
REMARK    9  A    between atoms: _28  and  _29
REMARK   10  A    between atoms: _31  and  _33
REMARK   11  A    between atoms: _33  and  _34
REMARK   12  A    between atoms: _33  and  _36
REMARK   13  A    between atoms: _36  and  _37
REMARK   14  A    between atoms: _40  and  _41
REMARK   15  A    between atoms: _46  and  _48
REMARK   16  A    between atoms: _48  and  _49
REMARK   17  A    between atoms: _48  and  _51
REMARK   18  A    between atoms: _51  and  _52
REMARK   19  A    between atoms: _57  and  _59
REMARK   20  A    between atoms: _59  and  _60
REMARK   21  A    between atoms: _59  and  _62
REMARK   22  A    between atoms: _62  and  _63
REMARK   23  A    between atoms: _68  and  _70
REMARK   24  A    between atoms: _70  and  _71
REMARK   25  A    between atoms: _70  and  _73
REMARK   26  A    between atoms: _73  and  _74
REMARK   27  A    between atoms: _79  and  _81
REMARK   28  A    between atoms: _81  and  _82
REMARK   29  A    between atoms: _81  and  _84
REMARK   30  A    between atoms: _84  and  _85
REMARK   31  A    between atoms: _88  and  _90
REMARK   32  A    between atoms: _90  and  _91
REMARK   33  A    between atoms: _90  and  _93
REMARK   34  A    between atoms: _93  and  _94
REMARK   35  A    between atoms: _94  and  _95
REMARK   36  A    between atoms: _100  and  _102
REMARK   37  A    between atoms: _102  and  _103
REMARK   38  A    between atoms: _102  and  _105
REMARK   39  A    between atoms: _105  and  _106
REMARK   40  A    between atoms: _112  and  _114
REMARK   41  A    between atoms: _125  and  _128
REMARK   42  A    between atoms: _128  and  _129
REMARK   43  A    between atoms: _137  and  _138
REMARK   44  A    between atoms: _146  and  _148
REMARK   45  A    between atoms: _148  and  _149
REMARK   46  A    between atoms: _148  and  _151
REMARK   47  A    between atoms: _151  and  _152
REMARK   48  A    between atoms: _152  and  _153
REMARK   49  A    between atoms: _156  and  _158
REMARK   50  A    between atoms: _158  and  _159
REMARK   51  A    between atoms: _158  and  _161
REMARK   52  A    between atoms: _161  and  _162
REMARK   53  A    between atoms: _167  and  _169
REMARK   54  A    between atoms: _169  and  _170
REMARK   55  A    between atoms: _169  and  _172
REMARK   56  A    between atoms: _172  and  _173
REMARK   57  A    between atoms: _173  and  _174
REMARK   58  A    between atoms: _177  and  _179
REMARK   59  A    between atoms: _179  and  _180
REMARK   60  A    between atoms: _179  and  _182
REMARK   61  A    between atoms: _182  and  _183
REMARK   62  A    between atoms: _186  and  _188
REMARK   63  A    between atoms: _188  and  _189
REMARK   64  A    between atoms: _188  and  _191
REMARK   65  A    between atoms: _191  and  _192
REMARK   66  A    between atoms: _193  and  ZN_413
REMARK   67  A    between atoms: _197  and  _199
REMARK   68  A    between atoms: _199  and  _200
REMARK   69  A    between atoms: _199  and  _202
REMARK   70  A    between atoms: _202  and  _203
REMARK   71  A    between atoms: _206  and  _208
REMARK   72  A    between atoms: _208  and  _209
REMARK   73  A    between atoms: _208  and  _211
REMARK   74  A    between atoms: _214  and  _216
REMARK   75  A    between atoms: _216  and  _217
REMARK   76  A    between atoms: _216  and  _219
REMARK   77  A    between atoms: _219  and  _220
REMARK   78  A    between atoms: _225  and  _227
REMARK   79  A    between atoms: _227  and  _228
REMARK   80  A    between atoms: _227  and  _230
REMARK   81  A    between atoms: _230  and  _231
REMARK   82  A    between atoms: _237  and  _239
REMARK   83  A    between atoms: _239  and  _240
REMARK   84  A    between atoms: _239  and  _242
REMARK   85  A    between atoms: _245  and  _247
REMARK   86  A    between atoms: _247  and  _248
REMARK   87  A    between atoms: _247  and  _250
REMARK   88  A    between atoms: _250  and  _251
REMARK   89  A    between atoms: _254  and  _256
REMARK   90  A    between atoms: _256  and  _257
REMARK   91  A    between atoms: _260  and  _262
REMARK   92  A    between atoms: _262  and  _263
REMARK   93  A    between atoms: _262  and  _265
REMARK   94  A    between atoms: _268  and  _270
REMARK   95  A    between atoms: _270  and  _271
REMARK   96  A    between atoms: _270  and  _273
REMARK   97  A    between atoms: _273  and  _274
REMARK   98  A    between atoms: _277  and  _279
REMARK   99  A    between atoms: _279  and  _280
REMARK  100  A    between atoms: _282  and  _284
REMARK  101  A    between atoms: _284  and  _285
REMARK  102  A    between atoms: _287  and  _289
REMARK  103  A    between atoms: _289  and  _290
REMARK  104  A    between atoms: _289  and  _292
REMARK  105  A    between atoms: _292  and  _293
REMARK  106  A    between atoms: _295  and  _297
REMARK  107  A    between atoms: _297  and  _298
REMARK  108  A    between atoms: _297  and  _300
REMARK  109  A    between atoms: _300  and  _301
REMARK  110  A    between atoms: _304  and  _306
REMARK  111  A    between atoms: _306  and  _307
REMARK  112  A    between atoms: _306  and  _309
REMARK  113  A    between atoms: _309  and  _310
REMARK  114  A    between atoms: _313  and  _315
REMARK  115  A    between atoms: _315  and  _316
REMARK  116  A    between atoms: _315  and  _318
REMARK  117  A    between atoms: _318  and  _319
REMARK  118  A    between atoms: _323  and  _324
REMARK  119  A    between atoms: _330  and  _331
REMARK  120  A    between atoms: _336  and  _338
REMARK  121  A    between atoms: _338  and  _339
REMARK  122  A    between atoms: _338  and  _341
REMARK  123  A    between atoms: _341  and  _342
REMARK  124  A    between atoms: _345  and  _347
REMARK  125  A    between atoms: _347  and  _348
REMARK  126  A    between atoms: _347  and  _350
REMARK  127  A    between atoms: _350  and  _351
REMARK  128  A    between atoms: _354  and  _356
REMARK  129  A    between atoms: _356  and  _357
REMARK  130  A    between atoms: _356  and  _359
REMARK  131  A    between atoms: _361  and  _363
REMARK  132  A    between atoms: _363  and  _364
REMARK  133  A    between atoms: _363  and  _366
REMARK  134  A    between atoms: _369  and  _371
REMARK  135  A    between atoms: _371  and  _372
REMARK  136  A    between atoms: _371  and  _374
REMARK  137  A    between atoms: _374  and  _375
REMARK  138  A    between atoms: _385  and  _387
REMARK  139  A    between atoms: _387  and  _388
REMARK  140  A    between atoms: _387  and  _390
REMARK  141  A    between atoms: _390  and  _391
REMARK  142  A    between atoms: _396  and  _398
REMARK  143  A    between atoms: _398  and  _399
REMARK  144  A    between atoms: _398  and  _401
REMARK  145  A    between atoms: _401  and  _402
REMARK  146  A    between atoms: _402  and  _403
REMARK  147  A    between atoms: _403  and  _404
REMARK                            x       y       z     vdW  Elec       q    Type
REMARK                         _______ _______ _______ _____ _____    ______ ____
ROOT
ATOM      1  O   HOH     1       3.503   2.675   8.043  0.00  0.00    +0.000 OA
ENDROOT
TORSDOF 0
REMARK  Name = ../refined-set-2016/3igp/3igp_pocket.pdb
REMARK  147 active torsions:
REMARK  status: ('A' for Active; 'I' for Inactive)
REMARK    1  A    between atoms: _1  and  _3
REMARK    2  A    between atoms: _3  and  _4
REMARK    3  A    between atoms: _3  and  _6
REMARK    4  A    between atoms: _6  and  _7
REMARK    5  A    between atoms: _17  and  _19
REMARK    6  A    between atoms: _19  and  _20
REMARK    7  A    between atoms: _19  and  _22
REMARK    8  A    between atoms: _22  and  _23
REMARK    9  A    between atoms: _28  and  _29
REMARK   10  A    between atoms: _31  and  _33
REMARK   11  A    between atoms: _33  and  _34
REMARK   12  A    between atoms: _33  and  _36
REMARK   13  A    between atoms: _36  and  _37
REMARK   14  A    between atoms: _40  and  _41
REMARK   15  A    between atoms: _46  and  _48
REMARK   16  A    between atoms: _48  and  _49
REMARK   17  A    between atoms: _48  and  _51
REMARK   18  A    between atoms: _51  and  _52
REMARK   19  A    between atoms: _57  and  _59
REMARK   20  A    between atoms: _59  and  _60
REMARK   21  A    between atoms: _59  and  _62
REMARK   22  A    between atoms: _62  and  _63
REMARK   23  A    between atoms: _68  and  _70
REMARK   24  A    between atoms: _70  and  _71
REMARK   25  A    between atoms: _70  and  _73
REMARK   26  A    between atoms: _73  and  _74
REMARK   27  A    between atoms: _79  and  _81
REMARK   28  A    between atoms: _81  and  _82
REMARK   29  A    between atoms: _81  and  _84
REMARK   30  A    between atoms: _84  and  _85
REMARK   31  A    between atoms: _88  and  _90
REMARK   32  A    between atoms: _90  and  _91
REMARK   33  A    between atoms: _90  and  _93
REMARK   34  A    between atoms: _93  and  _94
REMARK   35  A    between atoms: _94  and  _95
REMARK   36  A    between atoms: _100  and  _102
REMARK   37  A    between atoms: _102  and  _103
REMARK   38  A    between atoms: _102  and  _105
REMARK   39  A    between atoms: _105  and  _106
REMARK   40  A    between atoms: _112  and  _114
REMARK   41  A    between atoms: _125  and  _128
REMARK   42  A    between atoms: _128  and  _129
REMARK   43  A    between atoms: _137  and  _138
REMARK   44  A    between atoms: _146  and  _148
REMARK   45  A    between atoms: _148  and  _149
REMARK   46  A    between atoms: _148  and  _151
REMARK   47  A    between atoms: _151  and  _152
REMARK   48  A    between atoms: _152  and  _153
REMARK   49  A    between atoms: _156  and  _158
REMARK   50  A    between atoms: _158  and  _159
REMARK   51  A    between atoms: _158  and  _161
REMARK   52  A    between atoms: _161  and  _162
REMARK   53  A    between atoms: _167  and  _169
REMARK   54  A    between atoms: _169  and  _170
REMARK   55  A    between atoms: _169  and  _172
REMARK   56  A    between atoms: _172  and  _173
REMARK   57  A    between atoms: _173  and  _174
REMARK   58  A    between atoms: _177  and  _179
REMARK   59  A    between atoms: _179  and  _180
REMARK   60  A    between atoms: _179  and  _182
REMARK   61  A    between atoms: _182  and  _183
REMARK   62  A    between atoms: _186  and  _188
REMARK   63  A    between atoms: _188  and  _189
REMARK   64  A    between atoms: _188  and  _191
REMARK   65  A    between atoms: _191  and  _192
REMARK   66  A    between atoms: _193  and  ZN_413
REMARK   67  A    between atoms: _197  and  _199
REMARK   68  A    between atoms: _199  and  _200
REMARK   69  A    between atoms: _199  and  _202
REMARK   70  A    between atoms: _202  and  _203
REMARK   71  A    between atoms: _206  and  _208
REMARK   72  A    between atoms: _208  and  _209
REMARK   73  A    between atoms: _208  and  _211
REMARK   74  A    between atoms: _214  and  _216
REMARK   75  A    between atoms: _216  and  _217
REMARK   76  A    between atoms: _216  and  _219
REMARK   77  A    between atoms: _219  and  _220
REMARK   78  A    between atoms: _225  and  _227
REMARK   79  A    between atoms: _227  and  _228
REMARK   80  A    between atoms: _227  and  _230
REMARK   81  A    between atoms: _230  and  _231
REMARK   82  A    between atoms: _237  and  _239
REMARK   83  A    between atoms: _239  and  _240
REMARK   84  A    between atoms: _239  and  _242
REMARK   85  A    between atoms: _245  and  _247
REMARK   86  A    between atoms: _247  and  _248
REMARK   87  A    between atoms: _247  and  _250
REMARK   88  A    between atoms: _250  and  _251
REMARK   89  A    between atoms: _254  and  _256
REMARK   90  A    between atoms: _256  and  _257
REMARK   91  A    between atoms: _260  and  _262
REMARK   92  A    between atoms: _262  and  _263
REMARK   93  A    between atoms: _262  and  _265
REMARK   94  A    between atoms: _268  and  _270
REMARK   95  A    between atoms: _270  and  _271
REMARK   96  A    between atoms: _270  and  _273
REMARK   97  A    between atoms: _273  and  _274
REMARK   98  A    between atoms: _277  and  _279
REMARK   99  A    between atoms: _279  and  _280
REMARK  100  A    between atoms: _282  and  _284
REMARK  101  A    between atoms: _284  and  _285
REMARK  102  A    between atoms: _287  and  _289
REMARK  103  A    between atoms: _289  and  _290
REMARK  104  A    between atoms: _289  and  _292
REMARK  105  A    between atoms: _292  and  _293
REMARK  106  A    between atoms: _295  and  _297
REMARK  107  A    between atoms: _297  and  _298
REMARK  108  A    between atoms: _297  and  _300
REMARK  109  A    between atoms: _300  and  _301
REMARK  110  A    between atoms: _304  and  _306
REMARK  111  A    between atoms: _306  and  _307
REMARK  112  A    between atoms: _306  and  _309
REMARK  113  A    between atoms: _309  and  _310
REMARK  114  A    between atoms: _313  and  _315
REMARK  115  A    between atoms: _315  and  _316
REMARK  116  A    between atoms: _315  and  _318
REMARK  117  A    between atoms: _318  and  _319
REMARK  118  A    between atoms: _323  and  _324
REMARK  119  A    between atoms: _330  and  _331
REMARK  120  A    between atoms: _336  and  _338
REMARK  121  A    between atoms: _338  and  _339
REMARK  122  A    between atoms: _338  and  _341
REMARK  123  A    between atoms: _341  and  _342
REMARK  124  A    between atoms: _345  and  _347
REMARK  125  A    between atoms: _347  and  _348
REMARK  126  A    between atoms: _347  and  _350
REMARK  127  A    between atoms: _350  and  _351
REMARK  128  A    between atoms: _354  and  _356
REMARK  129  A    between atoms: _356  and  _357
REMARK  130  A    between atoms: _356  and  _359
REMARK  131  A    between atoms: _361  and  _363
REMARK  132  A    between atoms: _363  and  _364
REMARK  133  A    between atoms: _363  and  _366
REMARK  134  A    between atoms: _369  and  _371
REMARK  135  A    between atoms: _371  and  _372
REMARK  136  A    between atoms: _371  and  _374
REMARK  137  A    between atoms: _374  and  _375
REMARK  138  A    between atoms: _385  and  _387
REMARK  139  A    between atoms: _387  and  _388
REMARK  140  A    between atoms: _387  and  _390
REMARK  141  A    between atoms: _390  and  _391
REMARK  142  A    between atoms: _396  and  _398
REMARK  143  A    between atoms: _398  and  _399
REMARK  144  A    between atoms: _398  and  _401
REMARK  145  A    between atoms: _401  and  _402
REMARK  146  A    between atoms: _402  and  _403
REMARK  147  A    between atoms: _403  and  _404
REMARK                            x       y       z     vdW  Elec       q    Type
REMARK                         _______ _______ _______ _____ _____    ______ ____
ROOT
ATOM      1  O   HOH     1      -4.275  -4.822  11.295  0.00  0.00    +0.000 OA
ENDROOT
TORSDOF 0
REMARK  Name = ../refined-set-2016/3igp/3igp_pocket.pdb
REMARK  147 active torsions:
REMARK  status: ('A' for Active; 'I' for Inactive)
REMARK    1  A    between atoms: _1  and  _3
REMARK    2  A    between atoms: _3  and  _4
REMARK    3  A    between atoms: _3  and  _6
REMARK    4  A    between atoms: _6  and  _7
REMARK    5  A    between atoms: _17  and  _19
REMARK    6  A    between atoms: _19  and  _20
REMARK    7  A    between atoms: _19  and  _22
REMARK    8  A    between atoms: _22  and  _23
REMARK    9  A    between atoms: _28  and  _29
REMARK   10  A    between atoms: _31  and  _33
REMARK   11  A    between atoms: _33  and  _34
REMARK   12  A    between atoms: _33  and  _36
REMARK   13  A    between atoms: _36  and  _37
REMARK   14  A    between atoms: _40  and  _41
REMARK   15  A    between atoms: _46  and  _48
REMARK   16  A    between atoms: _48  and  _49
REMARK   17  A    between atoms: _48  and  _51
REMARK   18  A    between atoms: _51  and  _52
REMARK   19  A    between atoms: _57  and  _59
REMARK   20  A    between atoms: _59  and  _60
REMARK   21  A    between atoms: _59  and  _62
REMARK   22  A    between atoms: _62  and  _63
REMARK   23  A    between atoms: _68  and  _70
REMARK   24  A    between atoms: _70  and  _71
REMARK   25  A    between atoms: _70  and  _73
REMARK   26  A    between atoms: _73  and  _74
REMARK   27  A    between atoms: _79  and  _81
REMARK   28  A    between atoms: _81  and  _82
REMARK   29  A    between atoms: _81  and  _84
REMARK   30  A    between atoms: _84  and  _85
REMARK   31  A    between atoms: _88  and  _90
REMARK   32  A    between atoms: _90  and  _91
REMARK   33  A    between atoms: _90  and  _93
REMARK   34  A    between atoms: _93  and  _94
REMARK   35  A    between atoms: _94  and  _95
REMARK   36  A    between atoms: _100  and  _102
REMARK   37  A    between atoms: _102  and  _103
REMARK   38  A    between atoms: _102  and  _105
REMARK   39  A    between atoms: _105  and  _106
REMARK   40  A    between atoms: _112  and  _114
REMARK   41  A    between atoms: _125  and  _128
REMARK   42  A    between atoms: _128  and  _129
REMARK   43  A    between atoms: _137  and  _138
REMARK   44  A    between atoms: _146  and  _148
REMARK   45  A    between atoms: _148  and  _149
REMARK   46  A    between atoms: _148  and  _151
REMARK   47  A    between atoms: _151  and  _152
REMARK   48  A    between atoms: _152  and  _153
REMARK   49  A    between atoms: _156  and  _158
REMARK   50  A    between atoms: _158  and  _159
REMARK   51  A    between atoms: _158  and  _161
REMARK   52  A    between atoms: _161  and  _162
REMARK   53  A    between atoms: _167  and  _169
REMARK   54  A    between atoms: _169  and  _170
REMARK   55  A    between atoms: _169  and  _172
REMARK   56  A    between atoms: _172  and  _173
REMARK   57  A    between atoms: _173  and  _174
REMARK   58  A    between atoms: _177  and  _179
REMARK   59  A    between atoms: _179  and  _180
REMARK   60  A    between atoms: _179  and  _182
REMARK   61  A    between atoms: _182  and  _183
REMARK   62  A    between atoms: _186  and  _188
REMARK   63  A    between atoms: _188  and  _189
REMARK   64  A    between atoms: _188  and  _191
REMARK   65  A    between atoms: _191  and  _192
REMARK   66  A    between atoms: _193  and  ZN_413
REMARK   67  A    between atoms: _197  and  _199
REMARK   68  A    between atoms: _199  and  _200
REMARK   69  A    between atoms: _199  and  _202
REMARK   70  A    between atoms: _202  and  _203
REMARK   71  A    between atoms: _206  and  _208
REMARK   72  A    between atoms: _208  and  _209
REMARK   73  A    between atoms: _208  and  _211
REMARK   74  A    between atoms: _214  and  _216
REMARK   75  A    between atoms: _216  and  _217
REMARK   76  A    between atoms: _216  and  _219
REMARK   77  A    between atoms: _219  and  _220
REMARK   78  A    between atoms: _225  and  _227
REMARK   79  A    between atoms: _227  and  _228
REMARK   80  A    between atoms: _227  and  _230
REMARK   81  A    between atoms: _230  and  _231
REMARK   82  A    between atoms: _237  and  _239
REMARK   83  A    between atoms: _239  and  _240
REMARK   84  A    between atoms: _239  and  _242
REMARK   85  A    between atoms: _245  and  _247
REMARK   86  A    between atoms: _247  and  _248
REMARK   87  A    between atoms: _247  and  _250
REMARK   88  A    between atoms: _250  and  _251
REMARK   89  A    between atoms: _254  and  _256
REMARK   90  A    between atoms: _256  and  _257
REMARK   91  A    between atoms: _260  and  _262
REMARK   92  A    between atoms: _262  and  _263
REMARK   93  A    between atoms: _262  and  _265
REMARK   94  A    between atoms: _268  and  _270
REMARK   95  A    between atoms: _270  and  _271
REMARK   96  A    between atoms: _270  and  _273
REMARK   97  A    between atoms: _273  and  _274
REMARK   98  A    between atoms: _277  and  _279
REMARK   99  A    between atoms: _279  and  _280
REMARK  100  A    between atoms: _282  and  _284
REMARK  101  A    between atoms: _284  and  _285
REMARK  102  A    between atoms: _287  and  _289
REMARK  103  A    between atoms: _289  and  _290
REMARK  104  A    between atoms: _289  and  _292
REMARK  105  A    between atoms: _292  and  _293
REMARK  106  A    between atoms: _295  and  _297
REMARK  107  A    between atoms: _297  and  _298
REMARK  108  A    between atoms: _297  and  _300
REMARK  109  A    between atoms: _300  and  _301
REMARK  110  A    between atoms: _304  and  _306
REMARK  111  A    between atoms: _306  and  _307
REMARK  112  A    between atoms: _306  and  _309
REMARK  113  A    between atoms: _309  and  _310
REMARK  114  A    between atoms: _313  and  _315
REMARK  115  A    between atoms: _315  and  _316
REMARK  116  A    between atoms: _315  and  _318
REMARK  117  A    between atoms: _318  and  _319
REMARK  118  A    between atoms: _323  and  _324
REMARK  119  A    between atoms: _330  and  _331
REMARK  120  A    between atoms: _336  and  _338
REMARK  121  A    between atoms: _338  and  _339
REMARK  122  A    between atoms: _338  and  _341
REMARK  123  A    between atoms: _341  and  _342
REMARK  124  A    between atoms: _345  and  _347
REMARK  125  A    between atoms: _347  and  _348
REMARK  126  A    between atoms: _347  and  _350
REMARK  127  A    between atoms: _350  and  _351
REMARK  128  A    between atoms: _354  and  _356
REMARK  129  A    between atoms: _356  and  _357
REMARK  130  A    between atoms: _356  and  _359
REMARK  131  A    between atoms: _361  and  _363
REMARK  132  A    between atoms: _363  and  _364
REMARK  133  A    between atoms: _363  and  _366
REMARK  134  A    between atoms: _369  and  _371
REMARK  135  A    between atoms: _371  and  _372
REMARK  136  A    between atoms: _371  and  _374
REMARK  137  A    between atoms: _374  and  _375
REMARK  138  A    between atoms: _385  and  _387
REMARK  139  A    between atoms: _387  and  _388
REMARK  140  A    between atoms: _387  and  _390
REMARK  141  A    between atoms: _390  and  _391
REMARK  142  A    between atoms: _396  and  _398
REMARK  143  A    between atoms: _398  and  _399
REMARK  144  A    between atoms: _398  and  _401
REMARK  145  A    between atoms: _401  and  _402
REMARK  146  A    between atoms: _402  and  _403
REMARK  147  A    between atoms: _403  and  _404
REMARK                            x       y       z     vdW  Elec       q    Type
REMARK                         _______ _______ _______ _____ _____    ______ ____
ROOT
ATOM      1  O   HOH     1      -6.220   9.882   8.795  0.00  0.00    +0.000 OA
ENDROOT
TORSDOF 0
