REMARK  Name = ../refined-set-2016/4nj9/4nj9_pocket.pdb
REMARK  90 active torsions:
REMARK  status: ('A' for Active; 'I' for Inactive)
REMARK    1  A    between atoms: _1  and  _3
REMARK    2  A    between atoms: _3  and  _4
REMARK    3  A    between atoms: _3  and  _6
REMARK    4  A    between atoms: _6  and  _7
REMARK    5  A    between atoms: _9  and  _11
REMARK    6  A    between atoms: _11  and  _12
REMARK    7  A    between atoms: _11  and  _14
REMARK    8  A    between atoms: _14  and  _15
REMARK    9  A    between atoms: _20  and  _21
REMARK   10  A    between atoms: _23  and  _25
REMARK   11  A    between atoms: _25  and  _26
REMARK   12  A    between atoms: _28  and  _30
REMARK   13  A    between atoms: _30  and  _31
REMARK   14  A    between atoms: _30  and  _33
REMARK   15  A    between atoms: _33  and  _34
REMARK   16  A    between atoms: _37  and  _39
REMARK   17  A    between atoms: _39  and  _40
REMARK   18  A    between atoms: _39  and  _42
REMARK   19  A    between atoms: _42  and  _43
REMARK   20  A    between atoms: _45  and  _47
REMARK   21  A    between atoms: _47  and  _48
REMARK   22  A    between atoms: _47  and  _50
REMARK   23  A    between atoms: _50  and  _51
REMARK   24  A    between atoms: _57  and  _59
REMARK   25  A    between atoms: _59  and  _60
REMARK   26  A    between atoms: _59  and  _62
REMARK   27  A    between atoms: _62  and  _63
REMARK   28  A    between atoms: _68  and  _70
REMARK   29  A    between atoms: _70  and  _71
REMARK   30  A    between atoms: _70  and  _73
REMARK   31  A    between atoms: _73  and  _74
REMARK   32  A    between atoms: _79  and  _80
REMARK   33  A    between atoms: _82  and  _84
REMARK   34  A    between atoms: _84  and  _85
REMARK   35  A    between atoms: _84  and  _87
REMARK   36  A    between atoms: _87  and  _88
REMARK   37  A    between atoms: _88  and  _89
REMARK   38  A    between atoms: _89  and  _90
REMARK   39  A    between atoms: _99  and  _101
REMARK   40  A    between atoms: _101  and  _102
REMARK   41  A    between atoms: _101  and  _104
REMARK   42  A    between atoms: _104  and  _105
REMARK   43  A    between atoms: _110  and  _112
REMARK   44  A    between atoms: _112  and  _113
REMARK   45  A    between atoms: _112  and  _115
REMARK   46  A    between atoms: _115  and  _116
REMARK   47  A    between atoms: _118  and  _120
REMARK   48  A    between atoms: _120  and  _121
REMARK   49  A    between atoms: _120  and  _123
REMARK   50  A    between atoms: _123  and  _124
REMARK   51  A    between atoms: _129  and  _131
REMARK   52  A    between atoms: _131  and  _132
REMARK   53  A    between atoms: _131  and  _134
REMARK   54  A    between atoms: _134  and  _135
REMARK   55  A    between atoms: _135  and  _136
REMARK   56  A    between atoms: _136  and  _137
REMARK   57  A    between atoms: _146  and  _148
REMARK   58  A    between atoms: _148  and  _149
REMARK   59  A    between atoms: _148  and  _151
REMARK   60  A    between atoms: _151  and  _152
REMARK   61  A    between atoms: _152  and  _153
REMARK   62  A    between atoms: _153  and  _154
REMARK   63  A    between atoms: _163  and  _165
REMARK   64  A    between atoms: _165  and  _166
REMARK   65  A    between atoms: _168  and  _170
REMARK   66  A    between atoms: _170  and  _171
REMARK   67  A    between atoms: _173  and  _175
REMARK   68  A    between atoms: _175  and  _176
REMARK   69  A    between atoms: _175  and  _178
REMARK   70  A    between atoms: _178  and  _179
REMARK   71  A    between atoms: _184  and  _185
REMARK   72  A    between atoms: _187  and  _189
REMARK   73  A    between atoms: _189  and  _190
REMARK   74  A    between atoms: _192  and  _194
REMARK   75  A    between atoms: _194  and  _195
REMARK   76  A    between atoms: _194  and  _197
REMARK   77  A    between atoms: _197  and  _198
REMARK   78  A    between atoms: _200  and  _202
REMARK   79  A    between atoms: _202  and  _203
REMARK   80  A    between atoms: _202  and  _205
REMARK   81  A    between atoms: _205  and  _206
REMARK   82  A    between atoms: _206  and  _207
REMARK   83  A    between atoms: _207  and  _208
REMARK   84  A    between atoms: _217  and  _219
REMARK   85  A    between atoms: _219  and  _220
REMARK   86  A    between atoms: _222  and  _224
REMARK   87  A    between atoms: _224  and  _225
REMARK   88  A    between atoms: _224  and  _227
REMARK   89  A    between atoms: _227  and  _228
REMARK   90  A    between atoms: _233  and  _234
REMARK                            x       y       z     vdW  Elec       q    Type
REMARK                         _______ _______ _______ _____ _____    ______ ____
ROOT
ATOM      1  C   GLY A   3      10.064  12.248  57.677  0.00  0.00    +0.243 C 
ATOM      2  O   GLY A   3       9.518  11.130  57.876  0.00  0.00    -0.273 OA
ATOM      3  N   ILE A   4       9.577  13.166  56.835  0.00  0.00    -0.297 N 
ATOM      4  H   ILE A   4      10.083  14.069  56.732  0.00  0.00    +0.150 HD
ENDROOT
BRANCH   3   5
ATOM      5  CA  ILE A   4       8.366  12.949  56.057  0.00  0.00    +0.149 C 
BRANCH   5   6
ATOM      6  C   ILE A   4       8.775  12.783  54.586  0.00  0.00    +0.241 C 
ATOM      7  O   ILE A   4       9.612  13.517  54.098  0.00  0.00    -0.273 OA
ATOM      8  N   SER A   5       8.211  11.797  53.901  0.00  0.00    -0.295 N 
ATOM      9  H   SER A   5       7.503  11.195  54.368  0.00  0.00    +0.150 HD
BRANCH   8  10
ATOM     10  CA  SER A   5       8.563  11.534  52.496  0.00  0.00    +0.178 C 
BRANCH  10  11
ATOM     11  C   SER A   5       7.566  12.238  51.577  0.00  0.00    +0.243 C 
ATOM     12  O   SER A   5       6.376  11.913  51.580  0.00  0.00    -0.273 OA
ATOM     13  N   PHE A   6       8.042  13.223  50.832  0.00  0.00    -0.298 N 
ATOM     14  H   PHE A   6       9.061  13.433  50.838  0.00  0.00    +0.150 HD
BRANCH  13  15
ATOM     15  CA  PHE A   6       7.143  14.013  50.004  0.00  0.00    +0.141 C 
BRANCH  15  16
ATOM     16  C   PHE A   6       7.037  13.428  48.598  0.00  0.00    +0.227 C 
ATOM     17  O   PHE A   6       7.537  13.982  47.618  0.00  0.00    -0.286 OA
ENDBRANCH  15  16
BRANCH  15  18
ATOM     18  CB  PHE A   6       7.572  15.498  50.071  0.00  0.00    +0.054 C 
BRANCH  18  19
ATOM     19  CG  PHE A   6       7.254  16.091  51.383  0.00  0.00    -0.020 A 
ATOM     20  CD2 PHE A   6       8.236  16.185  52.378  0.00  0.00    -0.004 A 
ATOM     21  CE2 PHE A   6       7.927  16.701  53.632  0.00  0.00    -0.000 A 
ATOM     22  CZ  PHE A   6       6.606  17.079  53.928  0.00  0.00    -0.000 A 
ATOM     23  CE1 PHE A   6       5.615  16.968  52.953  0.00  0.00    -0.000 A 
ATOM     24  CD1 PHE A   6       5.913  16.469  51.687  0.00  0.00    -0.004 A 
ENDBRANCH  18  19
ENDBRANCH  15  18
ENDBRANCH  13  15
ENDBRANCH  10  11
BRANCH  10  25
ATOM     25  CB  SER A   5       8.505  10.031  52.192  0.00  0.00    +0.166 C 
BRANCH  25  26
ATOM     26  OG  SER A   5       9.544   9.339  52.837  0.00  0.00    -0.380 OA
ATOM     27  H   SER A   5      10.416   9.690  52.526  0.00  0.00    +0.211 HD
ENDBRANCH  25  26
ENDBRANCH  10  25
ENDBRANCH   8  10
ENDBRANCH   5   6
BRANCH   5  28
ATOM     28  CB  ILE A   4       7.354  14.122  56.224  0.00  0.00    +0.027 C 
ATOM     29  CG2 ILE A   4       6.092  13.890  55.369  0.00  0.00    +0.002 C 
BRANCH  28  30
ATOM     30  CG1 ILE A   4       7.002  14.328  57.701  0.00  0.00    +0.002 C 
ATOM     31  CD1 ILE A   4       6.253  13.162  58.378  0.00  0.00    +0.000 C 
ENDBRANCH  28  30
ENDBRANCH   5  28
ENDBRANCH   3   5
BRANCH   1  32
ATOM     32  CA  GLY A   3      11.330  12.637  58.433  0.00  0.00    +0.176 C 
BRANCH  32  35
ATOM     33  C   TYR A   2      11.168  15.004  58.916  0.00  0.00    +0.241 C 
ATOM     34  O   TYR A   2      10.332  14.773  59.785  0.00  0.00    -0.273 OA
ATOM     35  N   GLY A   3      11.747  14.034  58.223  0.00  0.00    -0.295 N 
ATOM     36  H   GLY A   3      12.493  14.258  57.534  0.00  0.00    +0.150 HD
BRANCH  33  37
ATOM     37  CA  TYR A   2      11.578  16.449  58.642  0.00  0.00    +0.153 C 
BRANCH  37  39
ATOM     38  C   SER A   1      11.384  16.367  56.206  0.00  0.00    +0.241 C 
ATOM     39  N   TYR A   2      12.073  16.690  57.297  0.00  0.00    -0.297 N 
ATOM     40  H   TYR A   2      13.006  17.134  57.183  0.00  0.00    +0.150 HD
ATOM     41  O   SER A   1      10.207  15.900  56.224  0.00  0.00    -0.274 OA
BRANCH  38  42
ATOM     42  CA  SER A   1      12.109  16.603  54.904  0.00  0.00    +0.174 C 
BRANCH  42  43
ATOM     43  N   SER A   1      11.817  15.454  54.084  0.00  0.00    -0.236 NA
ATOM     44  H   SER A   1      10.854  15.063  54.110  0.00  0.00    +0.142 HD
ENDBRANCH  42  43
BRANCH  42  45
ATOM     45  CB  SER A   1      11.577  17.890  54.276  0.00  0.00    +0.163 C 
BRANCH  45  46
ATOM     46  OG  SER A   1      12.415  18.321  53.232  0.00  0.00    -0.380 OA
ATOM     47  H   SER A   1      12.459  17.620  52.535  0.00  0.00    +0.211 HD
ENDBRANCH  45  46
ENDBRANCH  42  45
ENDBRANCH  38  42
ENDBRANCH  37  39
BRANCH  37  48
ATOM     48  CB  TYR A   2      10.372  17.329  58.939  0.00  0.00    +0.055 C 
BRANCH  48  49
ATOM     49  CG  TYR A   2      10.594  18.799  58.763  0.00  0.00    -0.020 A 
ATOM     50  CD2 TYR A   2      11.380  19.526  59.687  0.00  0.00    -0.001 A 
ATOM     51  CE2 TYR A   2      11.571  20.894  59.544  0.00  0.00    +0.036 A 
ATOM     52  CZ  TYR A   2      10.957  21.550  58.453  0.00  0.00    +0.134 A 
ATOM     53  CE1 TYR A   2      10.179  20.867  57.545  0.00  0.00    +0.036 A 
ATOM     54  CD1 TYR A   2       9.987  19.488  57.701  0.00  0.00    -0.001 A 
BRANCH  52  55
ATOM     55  OH  TYR A   2      11.129  22.898  58.296  0.00  0.00    -0.506 OA
ATOM     56  HH  TYR A   2      11.708  23.242  59.021  0.00  0.00    +0.292 HD
ENDBRANCH  52  55
ENDBRANCH  48  49
ENDBRANCH  37  48
ENDBRANCH  33  37
ENDBRANCH  32  35
ENDBRANCH   1  32
TORSDOF 23
REMARK  Name = ../refined-set-2016/4nj9/4nj9_pocket.pdb
REMARK  90 active torsions:
REMARK  status: ('A' for Active; 'I' for Inactive)
REMARK    1  A    between atoms: _1  and  _3
REMARK    2  A    between atoms: _3  and  _4
REMARK    3  A    between atoms: _3  and  _6
REMARK    4  A    between atoms: _6  and  _7
REMARK    5  A    between atoms: _9  and  _11
REMARK    6  A    between atoms: _11  and  _12
REMARK    7  A    between atoms: _11  and  _14
REMARK    8  A    between atoms: _14  and  _15
REMARK    9  A    between atoms: _20  and  _21
REMARK   10  A    between atoms: _23  and  _25
REMARK   11  A    between atoms: _25  and  _26
REMARK   12  A    between atoms: _28  and  _30
REMARK   13  A    between atoms: _30  and  _31
REMARK   14  A    between atoms: _30  and  _33
REMARK   15  A    between atoms: _33  and  _34
REMARK   16  A    between atoms: _37  and  _39
REMARK   17  A    between atoms: _39  and  _40
REMARK   18  A    between atoms: _39  and  _42
REMARK   19  A    between atoms: _42  and  _43
REMARK   20  A    between atoms: _45  and  _47
REMARK   21  A    between atoms: _47  and  _48
REMARK   22  A    between atoms: _47  and  _50
REMARK   23  A    between atoms: _50  and  _51
REMARK   24  A    between atoms: _57  and  _59
REMARK   25  A    between atoms: _59  and  _60
REMARK   26  A    between atoms: _59  and  _62
REMARK   27  A    between atoms: _62  and  _63
REMARK   28  A    between atoms: _68  and  _70
REMARK   29  A    between atoms: _70  and  _71
REMARK   30  A    between atoms: _70  and  _73
REMARK   31  A    between atoms: _73  and  _74
REMARK   32  A    between atoms: _79  and  _80
REMARK   33  A    between atoms: _82  and  _84
REMARK   34  A    between atoms: _84  and  _85
REMARK   35  A    between atoms: _84  and  _87
REMARK   36  A    between atoms: _87  and  _88
REMARK   37  A    between atoms: _88  and  _89
REMARK   38  A    between atoms: _89  and  _90
REMARK   39  A    between atoms: _99  and  _101
REMARK   40  A    between atoms: _101  and  _102
REMARK   41  A    between atoms: _101  and  _104
REMARK   42  A    between atoms: _104  and  _105
REMARK   43  A    between atoms: _110  and  _112
REMARK   44  A    between atoms: _112  and  _113
REMARK   45  A    between atoms: _112  and  _115
REMARK   46  A    between atoms: _115  and  _116
REMARK   47  A    between atoms: _118  and  _120
REMARK   48  A    between atoms: _120  and  _121
REMARK   49  A    between atoms: _120  and  _123
REMARK   50  A    between atoms: _123  and  _124
REMARK   51  A    between atoms: _129  and  _131
REMARK   52  A    between atoms: _131  and  _132
REMARK   53  A    between atoms: _131  and  _134
REMARK   54  A    between atoms: _134  and  _135
REMARK   55  A    between atoms: _135  and  _136
REMARK   56  A    between atoms: _136  and  _137
REMARK   57  A    between atoms: _146  and  _148
REMARK   58  A    between atoms: _148  and  _149
REMARK   59  A    between atoms: _148  and  _151
REMARK   60  A    between atoms: _151  and  _152
REMARK   61  A    between atoms: _152  and  _153
REMARK   62  A    between atoms: _153  and  _154
REMARK   63  A    between atoms: _163  and  _165
REMARK   64  A    between atoms: _165  and  _166
REMARK   65  A    between atoms: _168  and  _170
REMARK   66  A    between atoms: _170  and  _171
REMARK   67  A    between atoms: _173  and  _175
REMARK   68  A    between atoms: _175  and  _176
REMARK   69  A    between atoms: _175  and  _178
REMARK   70  A    between atoms: _178  and  _179
REMARK   71  A    between atoms: _184  and  _185
REMARK   72  A    between atoms: _187  and  _189
REMARK   73  A    between atoms: _189  and  _190
REMARK   74  A    between atoms: _192  and  _194
REMARK   75  A    between atoms: _194  and  _195
REMARK   76  A    between atoms: _194  and  _197
REMARK   77  A    between atoms: _197  and  _198
REMARK   78  A    between atoms: _200  and  _202
REMARK   79  A    between atoms: _202  and  _203
REMARK   80  A    between atoms: _202  and  _205
REMARK   81  A    between atoms: _205  and  _206
REMARK   82  A    between atoms: _206  and  _207
REMARK   83  A    between atoms: _207  and  _208
REMARK   84  A    between atoms: _217  and  _219
REMARK   85  A    between atoms: _219  and  _220
REMARK   86  A    between atoms: _222  and  _224
REMARK   87  A    between atoms: _224  and  _225
REMARK   88  A    between atoms: _224  and  _227
REMARK   89  A    between atoms: _227  and  _228
REMARK   90  A    between atoms: _233  and  _234
REMARK                            x       y       z     vdW  Elec       q    Type
REMARK                         _______ _______ _______ _____ _____    ______ ____
ROOT
ATOM      1  CB  HIS A   1       2.023  12.299  45.607  0.00  0.00    +0.072 C 
ENDROOT
BRANCH   1   2
ATOM      2  CG  HIS A   1       2.547  13.376  46.503  0.00  0.00    +0.082 A 
ATOM      3  ND1 HIS A   1       2.462  13.285  47.854  0.00  0.00    -0.227 NA
ATOM      4  CE1 HIS A   1       3.088  14.369  48.424  0.00  0.00    +0.199 A 
ATOM      5  NE2 HIS A   1       3.535  15.168  47.424  0.00  0.00    -0.221 NA
ATOM      6  CD2 HIS A   1       3.225  14.582  46.219  0.00  0.00    +0.115 A 
ENDBRANCH   1   2
BRANCH   1   7
ATOM      7  CA  HIS A   1       2.760  10.952  45.795  0.00  0.00    +0.139 C 
BRANCH   7   8
ATOM      8  N   HIS A   1       4.207  11.187  46.048  0.00  0.00    -0.239 NA
ATOM      9  H   HIS A   1       4.801  11.489  45.250  0.00  0.00    +0.142 HD
ENDBRANCH   7   8
BRANCH   7  10
ATOM     10  C   HIS A   1       2.521  10.079  44.625  0.00  0.00    +0.224 C 
ATOM     11  O   HIS A   1       3.374  10.008  43.728  0.00  0.00    -0.287 OA
ENDBRANCH   7  10
ENDBRANCH   1   7
TORSDOF 4
REMARK  Name = ../refined-set-2016/4nj9/4nj9_pocket.pdb
REMARK  90 active torsions:
REMARK  status: ('A' for Active; 'I' for Inactive)
REMARK    1  A    between atoms: _1  and  _3
REMARK    2  A    between atoms: _3  and  _4
REMARK    3  A    between atoms: _3  and  _6
REMARK    4  A    between atoms: _6  and  _7
REMARK    5  A    between atoms: _9  and  _11
REMARK    6  A    between atoms: _11  and  _12
REMARK    7  A    between atoms: _11  and  _14
REMARK    8  A    between atoms: _14  and  _15
REMARK    9  A    between atoms: _20  and  _21
REMARK   10  A    between atoms: _23  and  _25
REMARK   11  A    between atoms: _25  and  _26
REMARK   12  A    between atoms: _28  and  _30
REMARK   13  A    between atoms: _30  and  _31
REMARK   14  A    between atoms: _30  and  _33
REMARK   15  A    between atoms: _33  and  _34
REMARK   16  A    between atoms: _37  and  _39
REMARK   17  A    between atoms: _39  and  _40
REMARK   18  A    between atoms: _39  and  _42
REMARK   19  A    between atoms: _42  and  _43
REMARK   20  A    between atoms: _45  and  _47
REMARK   21  A    between atoms: _47  and  _48
REMARK   22  A    between atoms: _47  and  _50
REMARK   23  A    between atoms: _50  and  _51
REMARK   24  A    between atoms: _57  and  _59
REMARK   25  A    between atoms: _59  and  _60
REMARK   26  A    between atoms: _59  and  _62
REMARK   27  A    between atoms: _62  and  _63
REMARK   28  A    between atoms: _68  and  _70
REMARK   29  A    between atoms: _70  and  _71
REMARK   30  A    between atoms: _70  and  _73
REMARK   31  A    between atoms: _73  and  _74
REMARK   32  A    between atoms: _79  and  _80
REMARK   33  A    between atoms: _82  and  _84
REMARK   34  A    between atoms: _84  and  _85
REMARK   35  A    between atoms: _84  and  _87
REMARK   36  A    between atoms: _87  and  _88
REMARK   37  A    between atoms: _88  and  _89
REMARK   38  A    between atoms: _89  and  _90
REMARK   39  A    between atoms: _99  and  _101
REMARK   40  A    between atoms: _101  and  _102
REMARK   41  A    between atoms: _101  and  _104
REMARK   42  A    between atoms: _104  and  _105
REMARK   43  A    between atoms: _110  and  _112
REMARK   44  A    between atoms: _112  and  _113
REMARK   45  A    between atoms: _112  and  _115
REMARK   46  A    between atoms: _115  and  _116
REMARK   47  A    between atoms: _118  and  _120
REMARK   48  A    between atoms: _120  and  _121
REMARK   49  A    between atoms: _120  and  _123
REMARK   50  A    between atoms: _123  and  _124
REMARK   51  A    between atoms: _129  and  _131
REMARK   52  A    between atoms: _131  and  _132
REMARK   53  A    between atoms: _131  and  _134
REMARK   54  A    between atoms: _134  and  _135
REMARK   55  A    between atoms: _135  and  _136
REMARK   56  A    between atoms: _136  and  _137
REMARK   57  A    between atoms: _146  and  _148
REMARK   58  A    between atoms: _148  and  _149
REMARK   59  A    between atoms: _148  and  _151
REMARK   60  A    between atoms: _151  and  _152
REMARK   61  A    between atoms: _152  and  _153
REMARK   62  A    between atoms: _153  and  _154
REMARK   63  A    between atoms: _163  and  _165
REMARK   64  A    between atoms: _165  and  _166
REMARK   65  A    between atoms: _168  and  _170
REMARK   66  A    between atoms: _170  and  _171
REMARK   67  A    between atoms: _173  and  _175
REMARK   68  A    between atoms: _175  and  _176
REMARK   69  A    between atoms: _175  and  _178
REMARK   70  A    between atoms: _178  and  _179
REMARK   71  A    between atoms: _184  and  _185
REMARK   72  A    between atoms: _187  and  _189
REMARK   73  A    between atoms: _189  and  _190
REMARK   74  A    between atoms: _192  and  _194
REMARK   75  A    between atoms: _194  and  _195
REMARK   76  A    between atoms: _194  and  _197
REMARK   77  A    between atoms: _197  and  _198
REMARK   78  A    between atoms: _200  and  _202
REMARK   79  A    between atoms: _202  and  _203
REMARK   80  A    between atoms: _202  and  _205
REMARK   81  A    between atoms: _205  and  _206
REMARK   82  A    between atoms: _206  and  _207
REMARK   83  A    between atoms: _207  and  _208
REMARK   84  A    between atoms: _217  and  _219
REMARK   85  A    between atoms: _219  and  _220
REMARK   86  A    between atoms: _222  and  _224
REMARK   87  A    between atoms: _224  and  _225
REMARK   88  A    between atoms: _224  and  _227
REMARK   89  A    between atoms: _227  and  _228
REMARK   90  A    between atoms: _233  and  _234
REMARK                            x       y       z     vdW  Elec       q    Type
REMARK                         _______ _______ _______ _____ _____    ______ ____
ROOT
ATOM      1  C   TYR A   1       1.081  10.938  50.521  0.00  0.00    +0.239 C 
ATOM      2  O   TYR A   1       0.852  10.128  51.415  0.00  0.00    -0.274 OA
ATOM      3  N   ARG A   2       2.204  11.665  50.490  0.00  0.00    -0.298 N 
ATOM      4  H   ARG A   2       2.353  12.379  49.749  0.00  0.00    +0.150 HD
ENDROOT
BRANCH   1   5
ATOM      5  CA  TYR A   1       0.063  11.164  49.414  0.00  0.00    +0.149 C 
BRANCH   5   6
ATOM      6  N   TYR A   1      -0.729   9.956  49.177  0.00  0.00    -0.238 NA
ATOM      7  H   TYR A   1      -1.261   9.541  49.968  0.00  0.00    +0.142 HD
ENDBRANCH   5   6
BRANCH   5   8
ATOM      8  CB  TYR A   1      -0.820  12.374  49.739  0.00  0.00    +0.053 C 
BRANCH   8   9
ATOM      9  CG  TYR A   1      -1.787  12.272  50.908  0.00  0.00    -0.020 A 
ATOM     10  CD2 TYR A   1      -1.473  12.830  52.145  0.00  0.00    -0.001 A 
ATOM     11  CE2 TYR A   1      -2.338  12.805  53.213  0.00  0.00    +0.036 A 
ATOM     12  CZ  TYR A   1      -3.619  12.300  53.006  0.00  0.00    +0.134 A 
ATOM     13  CE1 TYR A   1      -4.013  11.782  51.783  0.00  0.00    +0.036 A 
ATOM     14  CD1 TYR A   1      -3.111  11.780  50.726  0.00  0.00    -0.001 A 
BRANCH  12  15
ATOM     15  OH  TYR A   1      -4.474  12.267  54.025  0.00  0.00    -0.506 OA
ATOM     16  HH  TYR A   1      -5.288  12.778  53.788  0.00  0.00    +0.292 HD
ENDBRANCH  12  15
ENDBRANCH   8   9
ENDBRANCH   5   8
ENDBRANCH   1   5
BRANCH   3  17
ATOM     17  CA  ARG A   2       3.237  11.430  51.539  0.00  0.00    +0.137 C 
BRANCH  17  18
ATOM     18  C   ARG A   2       3.536   9.945  51.770  0.00  0.00    +0.227 C 
ATOM     19  O   ARG A   2       3.576   9.449  52.909  0.00  0.00    -0.286 OA
ENDBRANCH  17  18
BRANCH  17  20
ATOM     20  CB  ARG A   2       2.933  12.193  52.831  0.00  0.00    +0.031 C 
BRANCH  20  21
ATOM     21  CG  ARG A   2       2.964  13.705  52.564  0.00  0.00    +0.045 C 
BRANCH  21  22
ATOM     22  CD  ARG A   2       2.755  14.511  53.838  0.00  0.00    +0.174 C 
BRANCH  22  23
ATOM     23  NE  ARG A   2       1.941  13.861  54.836  0.00  0.00    -0.265 N 
ATOM     24  HE  ARG A   2       2.353  13.066  55.364  0.00  0.00    +0.259 HD
ATOM     25  CZ  ARG A   2       0.700  14.220  55.116  0.00  0.00    +0.342 C 
ATOM     26  NH2 ARG A   2       0.038  13.582  56.028  0.00  0.00    -0.292 N 
ATOM     27 HH21 ARG A   2       0.483  12.791  56.536  0.00  0.00    +0.255 HD
ATOM     28 HH22 ARG A   2      -0.939  13.860  56.252  0.00  0.00    +0.255 HD
ATOM     29  NH1 ARG A   2       0.123  15.190  54.414  0.00  0.00    -0.292 N 
ATOM     30 HH11 ARG A   2      -0.853  15.477  54.629  0.00  0.00    +0.255 HD
ATOM     31 HH12 ARG A   2       0.648  15.662  53.650  0.00  0.00    +0.255 HD
ENDBRANCH  22  23
ENDBRANCH  21  22
ENDBRANCH  20  21
ENDBRANCH  17  20
ENDBRANCH   3  17
TORSDOF 11
REMARK  Name = ../refined-set-2016/4nj9/4nj9_pocket.pdb
REMARK  90 active torsions:
REMARK  status: ('A' for Active; 'I' for Inactive)
REMARK    1  A    between atoms: _1  and  _3
REMARK    2  A    between atoms: _3  and  _4
REMARK    3  A    between atoms: _3  and  _6
REMARK    4  A    between atoms: _6  and  _7
REMARK    5  A    between atoms: _9  and  _11
REMARK    6  A    between atoms: _11  and  _12
REMARK    7  A    between atoms: _11  and  _14
REMARK    8  A    between atoms: _14  and  _15
REMARK    9  A    between atoms: _20  and  _21
REMARK   10  A    between atoms: _23  and  _25
REMARK   11  A    between atoms: _25  and  _26
REMARK   12  A    between atoms: _28  and  _30
REMARK   13  A    between atoms: _30  and  _31
REMARK   14  A    between atoms: _30  and  _33
REMARK   15  A    between atoms: _33  and  _34
REMARK   16  A    between atoms: _37  and  _39
REMARK   17  A    between atoms: _39  and  _40
REMARK   18  A    between atoms: _39  and  _42
REMARK   19  A    between atoms: _42  and  _43
REMARK   20  A    between atoms: _45  and  _47
REMARK   21  A    between atoms: _47  and  _48
REMARK   22  A    between atoms: _47  and  _50
REMARK   23  A    between atoms: _50  and  _51
REMARK   24  A    between atoms: _57  and  _59
REMARK   25  A    between atoms: _59  and  _60
REMARK   26  A    between atoms: _59  and  _62
REMARK   27  A    between atoms: _62  and  _63
REMARK   28  A    between atoms: _68  and  _70
REMARK   29  A    between atoms: _70  and  _71
REMARK   30  A    between atoms: _70  and  _73
REMARK   31  A    between atoms: _73  and  _74
REMARK   32  A    between atoms: _79  and  _80
REMARK   33  A    between atoms: _82  and  _84
REMARK   34  A    between atoms: _84  and  _85
REMARK   35  A    between atoms: _84  and  _87
REMARK   36  A    between atoms: _87  and  _88
REMARK   37  A    between atoms: _88  and  _89
REMARK   38  A    between atoms: _89  and  _90
REMARK   39  A    between atoms: _99  and  _101
REMARK   40  A    between atoms: _101  and  _102
REMARK   41  A    between atoms: _101  and  _104
REMARK   42  A    between atoms: _104  and  _105
REMARK   43  A    between atoms: _110  and  _112
REMARK   44  A    between atoms: _112  and  _113
REMARK   45  A    between atoms: _112  and  _115
REMARK   46  A    between atoms: _115  and  _116
REMARK   47  A    between atoms: _118  and  _120
REMARK   48  A    between atoms: _120  and  _121
REMARK   49  A    between atoms: _120  and  _123
REMARK   50  A    between atoms: _123  and  _124
REMARK   51  A    between atoms: _129  and  _131
REMARK   52  A    between atoms: _131  and  _132
REMARK   53  A    between atoms: _131  and  _134
REMARK   54  A    between atoms: _134  and  _135
REMARK   55  A    between atoms: _135  and  _136
REMARK   56  A    between atoms: _136  and  _137
REMARK   57  A    between atoms: _146  and  _148
REMARK   58  A    between atoms: _148  and  _149
REMARK   59  A    between atoms: _148  and  _151
REMARK   60  A    between atoms: _151  and  _152
REMARK   61  A    between atoms: _152  and  _153
REMARK   62  A    between atoms: _153  and  _154
REMARK   63  A    between atoms: _163  and  _165
REMARK   64  A    between atoms: _165  and  _166
REMARK   65  A    between atoms: _168  and  _170
REMARK   66  A    between atoms: _170  and  _171
REMARK   67  A    between atoms: _173  and  _175
REMARK   68  A    between atoms: _175  and  _176
REMARK   69  A    between atoms: _175  and  _178
REMARK   70  A    between atoms: _178  and  _179
REMARK   71  A    between atoms: _184  and  _185
REMARK   72  A    between atoms: _187  and  _189
REMARK   73  A    between atoms: _189  and  _190
REMARK   74  A    between atoms: _192  and  _194
REMARK   75  A    between atoms: _194  and  _195
REMARK   76  A    between atoms: _194  and  _197
REMARK   77  A    between atoms: _197  and  _198
REMARK   78  A    between atoms: _200  and  _202
REMARK   79  A    between atoms: _202  and  _203
REMARK   80  A    between atoms: _202  and  _205
REMARK   81  A    between atoms: _205  and  _206
REMARK   82  A    between atoms: _206  and  _207
REMARK   83  A    between atoms: _207  and  _208
REMARK   84  A    between atoms: _217  and  _219
REMARK   85  A    between atoms: _219  and  _220
REMARK   86  A    between atoms: _222  and  _224
REMARK   87  A    between atoms: _224  and  _225
REMARK   88  A    between atoms: _224  and  _227
REMARK   89  A    between atoms: _227  and  _228
REMARK   90  A    between atoms: _233  and  _234
REMARK                            x       y       z     vdW  Elec       q    Type
REMARK                         _______ _______ _______ _____ _____    ______ ____
ROOT
ATOM      1  CB  ASN A   1      -1.508   9.475  53.547  0.00  0.00    +0.110 C 
ENDROOT
BRANCH   1   2
ATOM      2  CG  ASN A   1      -0.561   9.711  54.671  0.00  0.00    +0.221 C 
ATOM      3  ND2 ASN A   1      -1.037   9.456  55.867  0.00  0.00    -0.329 N 
ATOM      4 HD21 ASN A   1      -0.431   9.574  56.704  0.00  0.00    +0.145 HD
ATOM      5 HD22 ASN A   1      -2.020   9.136  55.978  0.00  0.00    +0.145 HD
ATOM      6  OD1 ASN A   1       0.643  10.110  54.453  0.00  0.00    -0.275 OA
ENDBRANCH   1   2
BRANCH   1   7
ATOM      7  CA  ASN A   1      -1.552   8.018  53.121  0.00  0.00    +0.142 C 
BRANCH   7   8
ATOM      8  N   ASN A   1      -0.230   7.622  52.645  0.00  0.00    -0.239 NA
ATOM      9  H   ASN A   1       0.396   8.303  52.170  0.00  0.00    +0.142 HD
ENDBRANCH   7   8
BRANCH   7  10
ATOM     10  C   ASN A   1      -2.612   7.816  52.027  0.00  0.00    +0.225 C 
ATOM     11  O   ASN A   1      -2.506   8.409  50.944  0.00  0.00    -0.287 OA
ENDBRANCH   7  10
ENDBRANCH   1   7
TORSDOF 4
REMARK  Name = ../refined-set-2016/4nj9/4nj9_pocket.pdb
REMARK  90 active torsions:
REMARK  status: ('A' for Active; 'I' for Inactive)
REMARK    1  A    between atoms: _1  and  _3
REMARK    2  A    between atoms: _3  and  _4
REMARK    3  A    between atoms: _3  and  _6
REMARK    4  A    between atoms: _6  and  _7
REMARK    5  A    between atoms: _9  and  _11
REMARK    6  A    between atoms: _11  and  _12
REMARK    7  A    between atoms: _11  and  _14
REMARK    8  A    between atoms: _14  and  _15
REMARK    9  A    between atoms: _20  and  _21
REMARK   10  A    between atoms: _23  and  _25
REMARK   11  A    between atoms: _25  and  _26
REMARK   12  A    between atoms: _28  and  _30
REMARK   13  A    between atoms: _30  and  _31
REMARK   14  A    between atoms: _30  and  _33
REMARK   15  A    between atoms: _33  and  _34
REMARK   16  A    between atoms: _37  and  _39
REMARK   17  A    between atoms: _39  and  _40
REMARK   18  A    between atoms: _39  and  _42
REMARK   19  A    between atoms: _42  and  _43
REMARK   20  A    between atoms: _45  and  _47
REMARK   21  A    between atoms: _47  and  _48
REMARK   22  A    between atoms: _47  and  _50
REMARK   23  A    between atoms: _50  and  _51
REMARK   24  A    between atoms: _57  and  _59
REMARK   25  A    between atoms: _59  and  _60
REMARK   26  A    between atoms: _59  and  _62
REMARK   27  A    between atoms: _62  and  _63
REMARK   28  A    between atoms: _68  and  _70
REMARK   29  A    between atoms: _70  and  _71
REMARK   30  A    between atoms: _70  and  _73
REMARK   31  A    between atoms: _73  and  _74
REMARK   32  A    between atoms: _79  and  _80
REMARK   33  A    between atoms: _82  and  _84
REMARK   34  A    between atoms: _84  and  _85
REMARK   35  A    between atoms: _84  and  _87
REMARK   36  A    between atoms: _87  and  _88
REMARK   37  A    between atoms: _88  and  _89
REMARK   38  A    between atoms: _89  and  _90
REMARK   39  A    between atoms: _99  and  _101
REMARK   40  A    between atoms: _101  and  _102
REMARK   41  A    between atoms: _101  and  _104
REMARK   42  A    between atoms: _104  and  _105
REMARK   43  A    between atoms: _110  and  _112
REMARK   44  A    between atoms: _112  and  _113
REMARK   45  A    between atoms: _112  and  _115
REMARK   46  A    between atoms: _115  and  _116
REMARK   47  A    between atoms: _118  and  _120
REMARK   48  A    between atoms: _120  and  _121
REMARK   49  A    between atoms: _120  and  _123
REMARK   50  A    between atoms: _123  and  _124
REMARK   51  A    between atoms: _129  and  _131
REMARK   52  A    between atoms: _131  and  _132
REMARK   53  A    between atoms: _131  and  _134
REMARK   54  A    between atoms: _134  and  _135
REMARK   55  A    between atoms: _135  and  _136
REMARK   56  A    between atoms: _136  and  _137
REMARK   57  A    between atoms: _146  and  _148
REMARK   58  A    between atoms: _148  and  _149
REMARK   59  A    between atoms: _148  and  _151
REMARK   60  A    between atoms: _151  and  _152
REMARK   61  A    between atoms: _152  and  _153
REMARK   62  A    between atoms: _153  and  _154
REMARK   63  A    between atoms: _163  and  _165
REMARK   64  A    between atoms: _165  and  _166
REMARK   65  A    between atoms: _168  and  _170
REMARK   66  A    between atoms: _170  and  _171
REMARK   67  A    between atoms: _173  and  _175
REMARK   68  A    between atoms: _175  and  _176
REMARK   69  A    between atoms: _175  and  _178
REMARK   70  A    between atoms: _178  and  _179
REMARK   71  A    between atoms: _184  and  _185
REMARK   72  A    between atoms: _187  and  _189
REMARK   73  A    between atoms: _189  and  _190
REMARK   74  A    between atoms: _192  and  _194
REMARK   75  A    between atoms: _194  and  _195
REMARK   76  A    between atoms: _194  and  _197
REMARK   77  A    between atoms: _197  and  _198
REMARK   78  A    between atoms: _200  and  _202
REMARK   79  A    between atoms: _202  and  _203
REMARK   80  A    between atoms: _202  and  _205
REMARK   81  A    between atoms: _205  and  _206
REMARK   82  A    between atoms: _206  and  _207
REMARK   83  A    between atoms: _207  and  _208
REMARK   84  A    between atoms: _217  and  _219
REMARK   85  A    between atoms: _219  and  _220
REMARK   86  A    between atoms: _222  and  _224
REMARK   87  A    between atoms: _224  and  _225
REMARK   88  A    between atoms: _224  and  _227
REMARK   89  A    between atoms: _227  and  _228
REMARK   90  A    between atoms: _233  and  _234
REMARK                            x       y       z     vdW  Elec       q    Type
REMARK                         _______ _______ _______ _____ _____    ______ ____
ROOT
ATOM      1  C   SER A   1       8.007  18.285  47.126  0.00  0.00    +0.241 C 
ATOM      2  O   SER A   1       7.660  19.246  47.824  0.00  0.00    -0.274 OA
ATOM      3  N   ASN A   2       9.152  17.631  47.309  0.00  0.00    -0.298 N 
ATOM      4  H   ASN A   2       9.400  16.846  46.674  0.00  0.00    +0.150 HD
ENDROOT
BRANCH   1   5
ATOM      5  CA  SER A   1       7.131  17.765  46.002  0.00  0.00    +0.174 C 
BRANCH   5   6
ATOM      6  N   SER A   1       7.414  16.349  45.743  0.00  0.00    -0.236 NA
ATOM      7  H   SER A   1       7.448  15.688  46.545  0.00  0.00    +0.142 HD
ENDBRANCH   5   6
BRANCH   5   8
ATOM      8  CB  SER A   1       5.666  17.930  46.416  0.00  0.00    +0.163 C 
BRANCH   8   9
ATOM      9  OG  SER A   1       5.451  17.241  47.639  0.00  0.00    -0.380 OA
ATOM     10  H   SER A   1       4.505  17.344  47.912  0.00  0.00    +0.211 HD
ENDBRANCH   8   9
ENDBRANCH   5   8
ENDBRANCH   1   5
BRANCH   3  11
ATOM     11  CA  ASN A   2      10.067  18.001  48.391  0.00  0.00    +0.146 C 
BRANCH  11  12
ATOM     12  C   ASN A   2      10.804  19.285  47.996  0.00  0.00    +0.227 C 
ATOM     13  O   ASN A   2      11.162  20.075  48.868  0.00  0.00    -0.286 OA
ENDBRANCH  11  12
BRANCH  11  14
ATOM     14  CB  ASN A   2      11.123  16.906  48.698  0.00  0.00    +0.112 C 
BRANCH  14  15
ATOM     15  CG  ASN A   2      11.884  17.183  50.000  0.00  0.00    +0.222 C 
ATOM     16  OD1 ASN A   2      11.248  17.499  51.012  0.00  0.00    -0.275 OA
ATOM     17  ND2 ASN A   2      13.248  17.039  50.006  0.00  0.00    -0.329 N 
ATOM     18 HD21 ASN A   2      13.784  17.197  50.883  0.00  0.00    +0.145 HD
ATOM     19 HD22 ASN A   2      13.747  16.772  49.133  0.00  0.00    +0.145 HD
ENDBRANCH  14  15
ENDBRANCH  11  14
ENDBRANCH   3  11
TORSDOF 8
REMARK  Name = ../refined-set-2016/4nj9/4nj9_pocket.pdb
REMARK  90 active torsions:
REMARK  status: ('A' for Active; 'I' for Inactive)
REMARK    1  A    between atoms: _1  and  _3
REMARK    2  A    between atoms: _3  and  _4
REMARK    3  A    between atoms: _3  and  _6
REMARK    4  A    between atoms: _6  and  _7
REMARK    5  A    between atoms: _9  and  _11
REMARK    6  A    between atoms: _11  and  _12
REMARK    7  A    between atoms: _11  and  _14
REMARK    8  A    between atoms: _14  and  _15
REMARK    9  A    between atoms: _20  and  _21
REMARK   10  A    between atoms: _23  and  _25
REMARK   11  A    between atoms: _25  and  _26
REMARK   12  A    between atoms: _28  and  _30
REMARK   13  A    between atoms: _30  and  _31
REMARK   14  A    between atoms: _30  and  _33
REMARK   15  A    between atoms: _33  and  _34
REMARK   16  A    between atoms: _37  and  _39
REMARK   17  A    between atoms: _39  and  _40
REMARK   18  A    between atoms: _39  and  _42
REMARK   19  A    between atoms: _42  and  _43
REMARK   20  A    between atoms: _45  and  _47
REMARK   21  A    between atoms: _47  and  _48
REMARK   22  A    between atoms: _47  and  _50
REMARK   23  A    between atoms: _50  and  _51
REMARK   24  A    between atoms: _57  and  _59
REMARK   25  A    between atoms: _59  and  _60
REMARK   26  A    between atoms: _59  and  _62
REMARK   27  A    between atoms: _62  and  _63
REMARK   28  A    between atoms: _68  and  _70
REMARK   29  A    between atoms: _70  and  _71
REMARK   30  A    between atoms: _70  and  _73
REMARK   31  A    between atoms: _73  and  _74
REMARK   32  A    between atoms: _79  and  _80
REMARK   33  A    between atoms: _82  and  _84
REMARK   34  A    between atoms: _84  and  _85
REMARK   35  A    between atoms: _84  and  _87
REMARK   36  A    between atoms: _87  and  _88
REMARK   37  A    between atoms: _88  and  _89
REMARK   38  A    between atoms: _89  and  _90
REMARK   39  A    between atoms: _99  and  _101
REMARK   40  A    between atoms: _101  and  _102
REMARK   41  A    between atoms: _101  and  _104
REMARK   42  A    between atoms: _104  and  _105
REMARK   43  A    between atoms: _110  and  _112
REMARK   44  A    between atoms: _112  and  _113
REMARK   45  A    between atoms: _112  and  _115
REMARK   46  A    between atoms: _115  and  _116
REMARK   47  A    between atoms: _118  and  _120
REMARK   48  A    between atoms: _120  and  _121
REMARK   49  A    between atoms: _120  and  _123
REMARK   50  A    between atoms: _123  and  _124
REMARK   51  A    between atoms: _129  and  _131
REMARK   52  A    between atoms: _131  and  _132
REMARK   53  A    between atoms: _131  and  _134
REMARK   54  A    between atoms: _134  and  _135
REMARK   55  A    between atoms: _135  and  _136
REMARK   56  A    between atoms: _136  and  _137
REMARK   57  A    between atoms: _146  and  _148
REMARK   58  A    between atoms: _148  and  _149
REMARK   59  A    between atoms: _148  and  _151
REMARK   60  A    between atoms: _151  and  _152
REMARK   61  A    between atoms: _152  and  _153
REMARK   62  A    between atoms: _153  and  _154
REMARK   63  A    between atoms: _163  and  _165
REMARK   64  A    between atoms: _165  and  _166
REMARK   65  A    between atoms: _168  and  _170
REMARK   66  A    between atoms: _170  and  _171
REMARK   67  A    between atoms: _173  and  _175
REMARK   68  A    between atoms: _175  and  _176
REMARK   69  A    between atoms: _175  and  _178
REMARK   70  A    between atoms: _178  and  _179
REMARK   71  A    between atoms: _184  and  _185
REMARK   72  A    between atoms: _187  and  _189
REMARK   73  A    between atoms: _189  and  _190
REMARK   74  A    between atoms: _192  and  _194
REMARK   75  A    between atoms: _194  and  _195
REMARK   76  A    between atoms: _194  and  _197
REMARK   77  A    between atoms: _197  and  _198
REMARK   78  A    between atoms: _200  and  _202
REMARK   79  A    between atoms: _202  and  _203
REMARK   80  A    between atoms: _202  and  _205
REMARK   81  A    between atoms: _205  and  _206
REMARK   82  A    between atoms: _206  and  _207
REMARK   83  A    between atoms: _207  and  _208
REMARK   84  A    between atoms: _217  and  _219
REMARK   85  A    between atoms: _219  and  _220
REMARK   86  A    between atoms: _222  and  _224
REMARK   87  A    between atoms: _224  and  _225
REMARK   88  A    between atoms: _224  and  _227
REMARK   89  A    between atoms: _227  and  _228
REMARK   90  A    between atoms: _233  and  _234
REMARK                            x       y       z     vdW  Elec       q    Type
REMARK                         _______ _______ _______ _____ _____    ______ ____
ROOT
ATOM      1  NE  ARG A   1       4.232  20.660  44.095  0.00  0.00    -0.265 N 
ATOM      2  CZ  ARG A   1       4.606  21.564  45.014  0.00  0.00    +0.342 C 
ATOM      3  NH2 ARG A   1       3.989  21.553  46.198  0.00  0.00    -0.292 N 
ATOM      4 HH21 ARG A   1       4.257  22.241  46.930  0.00  0.00    +0.255 HD
ATOM      5 HH22 ARG A   1       3.241  20.856  46.388  0.00  0.00    +0.255 HD
ATOM      6  NH1 ARG A   1       5.563  22.458  44.776  0.00  0.00    -0.292 N 
ATOM      7 HH11 ARG A   1       5.828  23.144  45.511  0.00  0.00    +0.255 HD
ATOM      8 HH12 ARG A   1       6.046  22.470  43.855  0.00  0.00    +0.255 HD
ATOM      9  HE  ARG A   1       3.503  19.975  44.378  0.00  0.00    +0.259 HD
ENDROOT
BRANCH   1  10
ATOM     10  CD  ARG A   1       4.754  20.547  42.729  0.00  0.00    +0.174 C 
BRANCH  10  11
ATOM     11  CG  ARG A   1       6.191  20.009  42.667  0.00  0.00    +0.045 C 
BRANCH  11  12
ATOM     12  CB  ARG A   1       6.609  19.475  41.315  0.00  0.00    +0.029 C 
BRANCH  12  13
ATOM     13  CA  ARG A   1       8.171  19.325  41.178  0.00  0.00    +0.133 C 
BRANCH  13  14
ATOM     14  N   ARG A   1       8.850  20.629  41.101  0.00  0.00    -0.239 NA
ATOM     15  H   ARG A   1       8.297  21.504  41.197  0.00  0.00    +0.142 HD
ENDBRANCH  13  14
BRANCH  13  16
ATOM     16  C   ARG A   1       8.485  18.507  39.957  0.00  0.00    +0.224 C 
ATOM     17  O   ARG A   1       8.589  19.036  38.877  0.00  0.00    -0.287 OA
ENDBRANCH  13  16
ENDBRANCH  12  13
ENDBRANCH  11  12
ENDBRANCH  10  11
ENDBRANCH   1  10
TORSDOF 6
REMARK  Name = ../refined-set-2016/4nj9/4nj9_pocket.pdb
REMARK  90 active torsions:
REMARK  status: ('A' for Active; 'I' for Inactive)
REMARK    1  A    between atoms: _1  and  _3
REMARK    2  A    between atoms: _3  and  _4
REMARK    3  A    between atoms: _3  and  _6
REMARK    4  A    between atoms: _6  and  _7
REMARK    5  A    between atoms: _9  and  _11
REMARK    6  A    between atoms: _11  and  _12
REMARK    7  A    between atoms: _11  and  _14
REMARK    8  A    between atoms: _14  and  _15
REMARK    9  A    between atoms: _20  and  _21
REMARK   10  A    between atoms: _23  and  _25
REMARK   11  A    between atoms: _25  and  _26
REMARK   12  A    between atoms: _28  and  _30
REMARK   13  A    between atoms: _30  and  _31
REMARK   14  A    between atoms: _30  and  _33
REMARK   15  A    between atoms: _33  and  _34
REMARK   16  A    between atoms: _37  and  _39
REMARK   17  A    between atoms: _39  and  _40
REMARK   18  A    between atoms: _39  and  _42
REMARK   19  A    between atoms: _42  and  _43
REMARK   20  A    between atoms: _45  and  _47
REMARK   21  A    between atoms: _47  and  _48
REMARK   22  A    between atoms: _47  and  _50
REMARK   23  A    between atoms: _50  and  _51
REMARK   24  A    between atoms: _57  and  _59
REMARK   25  A    between atoms: _59  and  _60
REMARK   26  A    between atoms: _59  and  _62
REMARK   27  A    between atoms: _62  and  _63
REMARK   28  A    between atoms: _68  and  _70
REMARK   29  A    between atoms: _70  and  _71
REMARK   30  A    between atoms: _70  and  _73
REMARK   31  A    between atoms: _73  and  _74
REMARK   32  A    between atoms: _79  and  _80
REMARK   33  A    between atoms: _82  and  _84
REMARK   34  A    between atoms: _84  and  _85
REMARK   35  A    between atoms: _84  and  _87
REMARK   36  A    between atoms: _87  and  _88
REMARK   37  A    between atoms: _88  and  _89
REMARK   38  A    between atoms: _89  and  _90
REMARK   39  A    between atoms: _99  and  _101
REMARK   40  A    between atoms: _101  and  _102
REMARK   41  A    between atoms: _101  and  _104
REMARK   42  A    between atoms: _104  and  _105
REMARK   43  A    between atoms: _110  and  _112
REMARK   44  A    between atoms: _112  and  _113
REMARK   45  A    between atoms: _112  and  _115
REMARK   46  A    between atoms: _115  and  _116
REMARK   47  A    between atoms: _118  and  _120
REMARK   48  A    between atoms: _120  and  _121
REMARK   49  A    between atoms: _120  and  _123
REMARK   50  A    between atoms: _123  and  _124
REMARK   51  A    between atoms: _129  and  _131
REMARK   52  A    between atoms: _131  and  _132
REMARK   53  A    between atoms: _131  and  _134
REMARK   54  A    between atoms: _134  and  _135
REMARK   55  A    between atoms: _135  and  _136
REMARK   56  A    between atoms: _136  and  _137
REMARK   57  A    between atoms: _146  and  _148
REMARK   58  A    between atoms: _148  and  _149
REMARK   59  A    between atoms: _148  and  _151
REMARK   60  A    between atoms: _151  and  _152
REMARK   61  A    between atoms: _152  and  _153
REMARK   62  A    between atoms: _153  and  _154
REMARK   63  A    between atoms: _163  and  _165
REMARK   64  A    between atoms: _165  and  _166
REMARK   65  A    between atoms: _168  and  _170
REMARK   66  A    between atoms: _170  and  _171
REMARK   67  A    between atoms: _173  and  _175
REMARK   68  A    between atoms: _175  and  _176
REMARK   69  A    between atoms: _175  and  _178
REMARK   70  A    between atoms: _178  and  _179
REMARK   71  A    between atoms: _184  and  _185
REMARK   72  A    between atoms: _187  and  _189
REMARK   73  A    between atoms: _189  and  _190
REMARK   74  A    between atoms: _192  and  _194
REMARK   75  A    between atoms: _194  and  _195
REMARK   76  A    between atoms: _194  and  _197
REMARK   77  A    between atoms: _197  and  _198
REMARK   78  A    between atoms: _200  and  _202
REMARK   79  A    between atoms: _202  and  _203
REMARK   80  A    between atoms: _202  and  _205
REMARK   81  A    between atoms: _205  and  _206
REMARK   82  A    between atoms: _206  and  _207
REMARK   83  A    between atoms: _207  and  _208
REMARK   84  A    between atoms: _217  and  _219
REMARK   85  A    between atoms: _219  and  _220
REMARK   86  A    between atoms: _222  and  _224
REMARK   87  A    between atoms: _224  and  _225
REMARK   88  A    between atoms: _224  and  _227
REMARK   89  A    between atoms: _227  and  _228
REMARK   90  A    between atoms: _233  and  _234
REMARK                            x       y       z     vdW  Elec       q    Type
REMARK                         _______ _______ _______ _____ _____    ______ ____
ROOT
ATOM      1  C   GLY A   5       2.775  23.437  51.928  0.00  0.00    +0.243 C 
ATOM      2  N   SER A   6       3.943  24.062  51.748  0.00  0.00    -0.295 N 
ATOM      3  H   SER A   6       4.442  24.398  52.597  0.00  0.00    +0.150 HD
ATOM      4  O   GLY A   5       2.189  22.800  51.053  0.00  0.00    -0.273 OA
ENDROOT
BRANCH   2   5
ATOM      5  CA  SER A   6       4.561  24.306  50.481  0.00  0.00    +0.178 C 
BRANCH   5   6
ATOM      6  C   SER A   6       4.818  22.986  49.743  0.00  0.00    +0.243 C 
ATOM      7  N   ARG A   7       4.996  21.911  50.506  0.00  0.00    -0.297 N 
ATOM      8  H   ARG A   7       4.871  21.987  51.536  0.00  0.00    +0.150 HD
ATOM      9  O   SER A   6       4.857  22.932  48.512  0.00  0.00    -0.273 OA
BRANCH   7  10
ATOM     10  CA  ARG A   7       5.362  20.634  49.924  0.00  0.00    +0.149 C 
BRANCH  10  11
ATOM     11  C   ARG A   7       4.072  19.822  49.666  0.00  0.00    +0.241 C 
ATOM     12  N   GLY A   8       2.925  20.487  49.690  0.00  0.00    -0.295 N 
ATOM     13  H   GLY A   8       2.919  21.516  49.841  0.00  0.00    +0.150 HD
ATOM     14  O   ARG A   7       4.098  18.607  49.479  0.00  0.00    -0.273 OA
BRANCH  12  15
ATOM     15  CA  GLY A   8       1.665  19.761  49.502  0.00  0.00    +0.176 C 
BRANCH  15  16
ATOM     16  C   GLY A   8       1.558  19.026  48.138  0.00  0.00    +0.243 C 
ATOM     17  N   TYR A   9       0.940  17.863  48.179  0.00  0.00    -0.298 N 
ATOM     18  H   TYR A   9       0.776  17.435  49.113  0.00  0.00    +0.150 HD
ATOM     19  O   GLY A   8       2.105  19.455  47.115  0.00  0.00    -0.273 OA
BRANCH  17  20
ATOM     20  CA  TYR A   9       0.464  17.126  46.993  0.00  0.00    +0.141 C 
BRANCH  20  21
ATOM     21  C   TYR A   9      -0.667  17.881  46.217  0.00  0.00    +0.227 C 
ATOM     22  O   TYR A   9      -1.260  18.887  46.696  0.00  0.00    -0.286 OA
ENDBRANCH  20  21
BRANCH  20  23
ATOM     23  CB  TYR A   9      -0.084  15.743  47.447  0.00  0.00    +0.054 C 
BRANCH  23  24
ATOM     24  CG  TYR A   9      -1.072  15.853  48.627  0.00  0.00    -0.020 A 
ATOM     25  CD2 TYR A   9      -0.605  15.890  49.952  0.00  0.00    -0.001 A 
ATOM     26  CE2 TYR A   9      -1.492  15.991  51.020  0.00  0.00    +0.036 A 
ATOM     27  CZ  TYR A   9      -2.854  16.076  50.758  0.00  0.00    +0.134 A 
ATOM     28  CE1 TYR A   9      -3.349  16.102  49.460  0.00  0.00    +0.036 A 
ATOM     29  CD1 TYR A   9      -2.455  15.995  48.398  0.00  0.00    -0.001 A 
BRANCH  27  30
ATOM     30  OH  TYR A   9      -3.749  16.214  51.764  0.00  0.00    -0.506 OA
ATOM     31  HH  TYR A   9      -3.275  16.179  52.633  0.00  0.00    +0.292 HD
ENDBRANCH  27  30
ENDBRANCH  23  24
ENDBRANCH  20  23
ENDBRANCH  17  20
ENDBRANCH  15  16
ENDBRANCH  12  15
ENDBRANCH  10  11
BRANCH  10  32
ATOM     32  CB  ARG A   7       6.358  19.919  50.840  0.00  0.00    +0.033 C 
BRANCH  32  33
ATOM     33  CG  ARG A   7       7.692  20.689  50.995  0.00  0.00    +0.045 C 
BRANCH  33  34
ATOM     34  CD  ARG A   7       8.739  19.802  51.617  0.00  0.00    +0.174 C 
BRANCH  34  35
ATOM     35  NE  ARG A   7      10.085  20.420  51.556  0.00  0.00    -0.265 N 
ATOM     36  CZ  ARG A   7      10.509  21.351  52.408  0.00  0.00    +0.342 C 
ATOM     37  NH2 ARG A   7       9.698  21.762  53.370  0.00  0.00    -0.292 N 
ATOM     38 HH21 ARG A   7      10.016  22.489  54.043  0.00  0.00    +0.255 HD
ATOM     39 HH22 ARG A   7       8.743  21.358  53.453  0.00  0.00    +0.255 HD
ATOM     40  NH1 ARG A   7      11.734  21.872  52.293  0.00  0.00    -0.292 N 
ATOM     41 HH11 ARG A   7      12.055  22.599  52.964  0.00  0.00    +0.255 HD
ATOM     42 HH12 ARG A   7      12.366  21.551  51.532  0.00  0.00    +0.255 HD
ATOM     43  HE  ARG A   7      10.734  20.109  50.806  0.00  0.00    +0.259 HD
ENDBRANCH  34  35
ENDBRANCH  33  34
ENDBRANCH  32  33
ENDBRANCH  10  32
ENDBRANCH   7  10
ENDBRANCH   5   6
BRANCH   5  44
ATOM     44  CB  SER A   6       5.902  24.987  50.793  0.00  0.00    +0.166 C 
BRANCH  44  45
ATOM     45  OG  SER A   6       6.399  25.457  49.607  0.00  0.00    -0.380 OA
ATOM     46  H   SER A   6       6.528  24.700  48.982  0.00  0.00    +0.211 HD
ENDBRANCH  44  45
ENDBRANCH   5  44
ENDBRANCH   2   5
BRANCH   1  47
ATOM     47  CA  GLY A   5       2.309  23.463  53.369  0.00  0.00    +0.176 C 
BRANCH  47  50
ATOM     48  C   TYR A   4       0.177  23.226  54.496  0.00  0.00    +0.241 C 
ATOM     49  O   TYR A   4       0.253  24.342  54.994  0.00  0.00    -0.273 OA
ATOM     50  N   GLY A   5       1.105  22.718  53.684  0.00  0.00    -0.295 N 
ATOM     51  H   GLY A   5       0.963  21.774  53.271  0.00  0.00    +0.150 HD
BRANCH  48  52
ATOM     52  CA  TYR A   4      -1.028  22.356  54.801  0.00  0.00    +0.153 C 
BRANCH  52  54
ATOM     53  C   GLY A   3      -1.957  20.984  53.020  0.00  0.00    +0.243 C 
ATOM     54  N   TYR A   4      -1.037  21.157  53.940  0.00  0.00    -0.297 N 
ATOM     55  H   TYR A   4      -0.299  20.435  54.065  0.00  0.00    +0.150 HD
ATOM     56  O   GLY A   3      -2.760  21.860  52.689  0.00  0.00    -0.273 OA
BRANCH  53  57
ATOM     57  CA  GLY A   3      -2.035  19.625  52.386  0.00  0.00    +0.176 C 
BRANCH  57  59
ATOM     58  C   GLY A   2      -2.623  20.269  50.116  0.00  0.00    +0.243 C 
ATOM     59  N   GLY A   3      -2.982  19.709  51.260  0.00  0.00    -0.295 N 
ATOM     60  H   GLY A   3      -3.942  19.324  51.366  0.00  0.00    +0.150 HD
ATOM     61  O   GLY A   2      -1.528  20.834  49.946  0.00  0.00    -0.273 OA
BRANCH  58  62
ATOM     62  CA  GLY A   2      -3.602  20.146  48.974  0.00  0.00    +0.176 C 
BRANCH  62  65
ATOM     63  C   ARG A   1      -3.038  21.736  47.209  0.00  0.00    +0.238 C 
ATOM     64  O   ARG A   1      -3.600  22.618  47.793  0.00  0.00    -0.274 OA
ATOM     65  N   GLY A   2      -2.962  20.505  47.695  0.00  0.00    -0.296 N 
ATOM     66  H   GLY A   2      -2.441  19.778  47.164  0.00  0.00    +0.150 HD
BRANCH  63  67
ATOM     67  CA  ARG A   1      -2.300  22.049  45.916  0.00  0.00    +0.145 C 
BRANCH  67  68
ATOM     68  N   ARG A   1      -3.177  22.605  44.919  0.00  0.00    -0.238 NA
ATOM     69  H   ARG A   1      -3.167  23.628  44.731  0.00  0.00    +0.142 HD
ENDBRANCH  67  68
BRANCH  67  70
ATOM     70  CB  ARG A   1      -1.200  23.061  46.234  0.00  0.00    +0.030 C 
BRANCH  70  71
ATOM     71  CG  ARG A   1       0.110  22.397  46.587  0.00  0.00    +0.045 C 
BRANCH  71  72
ATOM     72  CD  ARG A   1       0.437  22.512  48.039  0.00  0.00    +0.174 C 
BRANCH  72  73
ATOM     73  NE  ARG A   1       0.603  23.866  48.512  0.00  0.00    -0.265 N 
ATOM     74  CZ  ARG A   1       0.098  24.381  49.633  0.00  0.00    +0.342 C 
ATOM     75  NH2 ARG A   1      -0.692  23.675  50.455  0.00  0.00    -0.292 N 
ATOM     76 HH21 ARG A   1      -1.066  24.114  51.321  0.00  0.00    +0.255 HD
ATOM     77 HH22 ARG A   1      -0.931  22.689  50.227  0.00  0.00    +0.255 HD
ATOM     78  NH1 ARG A   1       0.415  25.631  49.967  0.00  0.00    -0.292 N 
ATOM     79 HH11 ARG A   1       0.031  26.050  50.838  0.00  0.00    +0.255 HD
ATOM     80 HH12 ARG A   1       1.047  26.188  49.357  0.00  0.00    +0.255 HD
ATOM     81  HE  ARG A   1       1.173  24.503  47.919  0.00  0.00    +0.259 HD
ENDBRANCH  72  73
ENDBRANCH  71  72
ENDBRANCH  70  71
ENDBRANCH  67  70
ENDBRANCH  63  67
ENDBRANCH  62  65
ENDBRANCH  58  62
ENDBRANCH  57  59
ENDBRANCH  53  57
ENDBRANCH  52  54
BRANCH  52  82
ATOM     82  CB  TYR A   4      -1.069  22.000  56.306  0.00  0.00    +0.055 C 
BRANCH  82  83
ATOM     83  CG  TYR A   4      -2.323  21.335  56.680  0.00  0.00    -0.020 A 
ATOM     84  CD2 TYR A   4      -3.451  22.109  56.935  0.00  0.00    -0.001 A 
ATOM     85  CE2 TYR A   4      -4.674  21.537  57.200  0.00  0.00    +0.036 A 
ATOM     86  CZ  TYR A   4      -4.809  20.177  57.169  0.00  0.00    +0.134 A 
ATOM     87  CE1 TYR A   4      -3.717  19.351  56.896  0.00  0.00    +0.036 A 
ATOM     88  CD1 TYR A   4      -2.460  19.943  56.655  0.00  0.00    -0.001 A 
BRANCH  86  89
ATOM     89  OH  TYR A   4      -6.065  19.726  57.451  0.00  0.00    -0.506 OA
ATOM     90  HH  TYR A   4      -6.664  20.498  57.608  0.00  0.00    +0.292 HD
ENDBRANCH  86  89
ENDBRANCH  82  83
ENDBRANCH  52  82
ENDBRANCH  48  52
ENDBRANCH  47  50
ENDBRANCH   1  47
TORSDOF 34
REMARK  Name = ../refined-set-2016/4nj9/4nj9_pocket.pdb
REMARK  90 active torsions:
REMARK  status: ('A' for Active; 'I' for Inactive)
REMARK    1  A    between atoms: _1  and  _3
REMARK    2  A    between atoms: _3  and  _4
REMARK    3  A    between atoms: _3  and  _6
REMARK    4  A    between atoms: _6  and  _7
REMARK    5  A    between atoms: _9  and  _11
REMARK    6  A    between atoms: _11  and  _12
REMARK    7  A    between atoms: _11  and  _14
REMARK    8  A    between atoms: _14  and  _15
REMARK    9  A    between atoms: _20  and  _21
REMARK   10  A    between atoms: _23  and  _25
REMARK   11  A    between atoms: _25  and  _26
REMARK   12  A    between atoms: _28  and  _30
REMARK   13  A    between atoms: _30  and  _31
REMARK   14  A    between atoms: _30  and  _33
REMARK   15  A    between atoms: _33  and  _34
REMARK   16  A    between atoms: _37  and  _39
REMARK   17  A    between atoms: _39  and  _40
REMARK   18  A    between atoms: _39  and  _42
REMARK   19  A    between atoms: _42  and  _43
REMARK   20  A    between atoms: _45  and  _47
REMARK   21  A    between atoms: _47  and  _48
REMARK   22  A    between atoms: _47  and  _50
REMARK   23  A    between atoms: _50  and  _51
REMARK   24  A    between atoms: _57  and  _59
REMARK   25  A    between atoms: _59  and  _60
REMARK   26  A    between atoms: _59  and  _62
REMARK   27  A    between atoms: _62  and  _63
REMARK   28  A    between atoms: _68  and  _70
REMARK   29  A    between atoms: _70  and  _71
REMARK   30  A    between atoms: _70  and  _73
REMARK   31  A    between atoms: _73  and  _74
REMARK   32  A    between atoms: _79  and  _80
REMARK   33  A    between atoms: _82  and  _84
REMARK   34  A    between atoms: _84  and  _85
REMARK   35  A    between atoms: _84  and  _87
REMARK   36  A    between atoms: _87  and  _88
REMARK   37  A    between atoms: _88  and  _89
REMARK   38  A    between atoms: _89  and  _90
REMARK   39  A    between atoms: _99  and  _101
REMARK   40  A    between atoms: _101  and  _102
REMARK   41  A    between atoms: _101  and  _104
REMARK   42  A    between atoms: _104  and  _105
REMARK   43  A    between atoms: _110  and  _112
REMARK   44  A    between atoms: _112  and  _113
REMARK   45  A    between atoms: _112  and  _115
REMARK   46  A    between atoms: _115  and  _116
REMARK   47  A    between atoms: _118  and  _120
REMARK   48  A    between atoms: _120  and  _121
REMARK   49  A    between atoms: _120  and  _123
REMARK   50  A    between atoms: _123  and  _124
REMARK   51  A    between atoms: _129  and  _131
REMARK   52  A    between atoms: _131  and  _132
REMARK   53  A    between atoms: _131  and  _134
REMARK   54  A    between atoms: _134  and  _135
REMARK   55  A    between atoms: _135  and  _136
REMARK   56  A    between atoms: _136  and  _137
REMARK   57  A    between atoms: _146  and  _148
REMARK   58  A    between atoms: _148  and  _149
REMARK   59  A    between atoms: _148  and  _151
REMARK   60  A    between atoms: _151  and  _152
REMARK   61  A    between atoms: _152  and  _153
REMARK   62  A    between atoms: _153  and  _154
REMARK   63  A    between atoms: _163  and  _165
REMARK   64  A    between atoms: _165  and  _166
REMARK   65  A    between atoms: _168  and  _170
REMARK   66  A    between atoms: _170  and  _171
REMARK   67  A    between atoms: _173  and  _175
REMARK   68  A    between atoms: _175  and  _176
REMARK   69  A    between atoms: _175  and  _178
REMARK   70  A    between atoms: _178  and  _179
REMARK   71  A    between atoms: _184  and  _185
REMARK   72  A    between atoms: _187  and  _189
REMARK   73  A    between atoms: _189  and  _190
REMARK   74  A    between atoms: _192  and  _194
REMARK   75  A    between atoms: _194  and  _195
REMARK   76  A    between atoms: _194  and  _197
REMARK   77  A    between atoms: _197  and  _198
REMARK   78  A    between atoms: _200  and  _202
REMARK   79  A    between atoms: _202  and  _203
REMARK   80  A    between atoms: _202  and  _205
REMARK   81  A    between atoms: _205  and  _206
REMARK   82  A    between atoms: _206  and  _207
REMARK   83  A    between atoms: _207  and  _208
REMARK   84  A    between atoms: _217  and  _219
REMARK   85  A    between atoms: _219  and  _220
REMARK   86  A    between atoms: _222  and  _224
REMARK   87  A    between atoms: _224  and  _225
REMARK   88  A    between atoms: _224  and  _227
REMARK   89  A    between atoms: _227  and  _228
REMARK   90  A    between atoms: _233  and  _234
REMARK                            x       y       z     vdW  Elec       q    Type
REMARK                         _______ _______ _______ _____ _____    ______ ____
ROOT
ATOM      1  O   HOH     1       7.296  23.723  46.808  0.00  0.00    +0.000 OA
ENDROOT
TORSDOF 0
REMARK  Name = ../refined-set-2016/4nj9/4nj9_pocket.pdb
REMARK  90 active torsions:
REMARK  status: ('A' for Active; 'I' for Inactive)
REMARK    1  A    between atoms: _1  and  _3
REMARK    2  A    between atoms: _3  and  _4
REMARK    3  A    between atoms: _3  and  _6
REMARK    4  A    between atoms: _6  and  _7
REMARK    5  A    between atoms: _9  and  _11
REMARK    6  A    between atoms: _11  and  _12
REMARK    7  A    between atoms: _11  and  _14
REMARK    8  A    between atoms: _14  and  _15
REMARK    9  A    between atoms: _20  and  _21
REMARK   10  A    between atoms: _23  and  _25
REMARK   11  A    between atoms: _25  and  _26
REMARK   12  A    between atoms: _28  and  _30
REMARK   13  A    between atoms: _30  and  _31
REMARK   14  A    between atoms: _30  and  _33
REMARK   15  A    between atoms: _33  and  _34
REMARK   16  A    between atoms: _37  and  _39
REMARK   17  A    between atoms: _39  and  _40
REMARK   18  A    between atoms: _39  and  _42
REMARK   19  A    between atoms: _42  and  _43
REMARK   20  A    between atoms: _45  and  _47
REMARK   21  A    between atoms: _47  and  _48
REMARK   22  A    between atoms: _47  and  _50
REMARK   23  A    between atoms: _50  and  _51
REMARK   24  A    between atoms: _57  and  _59
REMARK   25  A    between atoms: _59  and  _60
REMARK   26  A    between atoms: _59  and  _62
REMARK   27  A    between atoms: _62  and  _63
REMARK   28  A    between atoms: _68  and  _70
REMARK   29  A    between atoms: _70  and  _71
REMARK   30  A    between atoms: _70  and  _73
REMARK   31  A    between atoms: _73  and  _74
REMARK   32  A    between atoms: _79  and  _80
REMARK   33  A    between atoms: _82  and  _84
REMARK   34  A    between atoms: _84  and  _85
REMARK   35  A    between atoms: _84  and  _87
REMARK   36  A    between atoms: _87  and  _88
REMARK   37  A    between atoms: _88  and  _89
REMARK   38  A    between atoms: _89  and  _90
REMARK   39  A    between atoms: _99  and  _101
REMARK   40  A    between atoms: _101  and  _102
REMARK   41  A    between atoms: _101  and  _104
REMARK   42  A    between atoms: _104  and  _105
REMARK   43  A    between atoms: _110  and  _112
REMARK   44  A    between atoms: _112  and  _113
REMARK   45  A    between atoms: _112  and  _115
REMARK   46  A    between atoms: _115  and  _116
REMARK   47  A    between atoms: _118  and  _120
REMARK   48  A    between atoms: _120  and  _121
REMARK   49  A    between atoms: _120  and  _123
REMARK   50  A    between atoms: _123  and  _124
REMARK   51  A    between atoms: _129  and  _131
REMARK   52  A    between atoms: _131  and  _132
REMARK   53  A    between atoms: _131  and  _134
REMARK   54  A    between atoms: _134  and  _135
REMARK   55  A    between atoms: _135  and  _136
REMARK   56  A    between atoms: _136  and  _137
REMARK   57  A    between atoms: _146  and  _148
REMARK   58  A    between atoms: _148  and  _149
REMARK   59  A    between atoms: _148  and  _151
REMARK   60  A    between atoms: _151  and  _152
REMARK   61  A    between atoms: _152  and  _153
REMARK   62  A    between atoms: _153  and  _154
REMARK   63  A    between atoms: _163  and  _165
REMARK   64  A    between atoms: _165  and  _166
REMARK   65  A    between atoms: _168  and  _170
REMARK   66  A    between atoms: _170  and  _171
REMARK   67  A    between atoms: _173  and  _175
REMARK   68  A    between atoms: _175  and  _176
REMARK   69  A    between atoms: _175  and  _178
REMARK   70  A    between atoms: _178  and  _179
REMARK   71  A    between atoms: _184  and  _185
REMARK   72  A    between atoms: _187  and  _189
REMARK   73  A    between atoms: _189  and  _190
REMARK   74  A    between atoms: _192  and  _194
REMARK   75  A    between atoms: _194  and  _195
REMARK   76  A    between atoms: _194  and  _197
REMARK   77  A    between atoms: _197  and  _198
REMARK   78  A    between atoms: _200  and  _202
REMARK   79  A    between atoms: _202  and  _203
REMARK   80  A    between atoms: _202  and  _205
REMARK   81  A    between atoms: _205  and  _206
REMARK   82  A    between atoms: _206  and  _207
REMARK   83  A    between atoms: _207  and  _208
REMARK   84  A    between atoms: _217  and  _219
REMARK   85  A    between atoms: _219  and  _220
REMARK   86  A    between atoms: _222  and  _224
REMARK   87  A    between atoms: _224  and  _225
REMARK   88  A    between atoms: _224  and  _227
REMARK   89  A    between atoms: _227  and  _228
REMARK   90  A    between atoms: _233  and  _234
REMARK                            x       y       z     vdW  Elec       q    Type
REMARK                         _______ _______ _______ _____ _____    ______ ____
ROOT
ATOM      1  O   HOH     1       5.150  25.101  46.259  0.00  0.00    +0.000 OA
ENDROOT
TORSDOF 0
REMARK  Name = ../refined-set-2016/4nj9/4nj9_pocket.pdb
REMARK  90 active torsions:
REMARK  status: ('A' for Active; 'I' for Inactive)
REMARK    1  A    between atoms: _1  and  _3
REMARK    2  A    between atoms: _3  and  _4
REMARK    3  A    between atoms: _3  and  _6
REMARK    4  A    between atoms: _6  and  _7
REMARK    5  A    between atoms: _9  and  _11
REMARK    6  A    between atoms: _11  and  _12
REMARK    7  A    between atoms: _11  and  _14
REMARK    8  A    between atoms: _14  and  _15
REMARK    9  A    between atoms: _20  and  _21
REMARK   10  A    between atoms: _23  and  _25
REMARK   11  A    between atoms: _25  and  _26
REMARK   12  A    between atoms: _28  and  _30
REMARK   13  A    between atoms: _30  and  _31
REMARK   14  A    between atoms: _30  and  _33
REMARK   15  A    between atoms: _33  and  _34
REMARK   16  A    between atoms: _37  and  _39
REMARK   17  A    between atoms: _39  and  _40
REMARK   18  A    between atoms: _39  and  _42
REMARK   19  A    between atoms: _42  and  _43
REMARK   20  A    between atoms: _45  and  _47
REMARK   21  A    between atoms: _47  and  _48
REMARK   22  A    between atoms: _47  and  _50
REMARK   23  A    between atoms: _50  and  _51
REMARK   24  A    between atoms: _57  and  _59
REMARK   25  A    between atoms: _59  and  _60
REMARK   26  A    between atoms: _59  and  _62
REMARK   27  A    between atoms: _62  and  _63
REMARK   28  A    between atoms: _68  and  _70
REMARK   29  A    between atoms: _70  and  _71
REMARK   30  A    between atoms: _70  and  _73
REMARK   31  A    between atoms: _73  and  _74
REMARK   32  A    between atoms: _79  and  _80
REMARK   33  A    between atoms: _82  and  _84
REMARK   34  A    between atoms: _84  and  _85
REMARK   35  A    between atoms: _84  and  _87
REMARK   36  A    between atoms: _87  and  _88
REMARK   37  A    between atoms: _88  and  _89
REMARK   38  A    between atoms: _89  and  _90
REMARK   39  A    between atoms: _99  and  _101
REMARK   40  A    between atoms: _101  and  _102
REMARK   41  A    between atoms: _101  and  _104
REMARK   42  A    between atoms: _104  and  _105
REMARK   43  A    between atoms: _110  and  _112
REMARK   44  A    between atoms: _112  and  _113
REMARK   45  A    between atoms: _112  and  _115
REMARK   46  A    between atoms: _115  and  _116
REMARK   47  A    between atoms: _118  and  _120
REMARK   48  A    between atoms: _120  and  _121
REMARK   49  A    between atoms: _120  and  _123
REMARK   50  A    between atoms: _123  and  _124
REMARK   51  A    between atoms: _129  and  _131
REMARK   52  A    between atoms: _131  and  _132
REMARK   53  A    between atoms: _131  and  _134
REMARK   54  A    between atoms: _134  and  _135
REMARK   55  A    between atoms: _135  and  _136
REMARK   56  A    between atoms: _136  and  _137
REMARK   57  A    between atoms: _146  and  _148
REMARK   58  A    between atoms: _148  and  _149
REMARK   59  A    between atoms: _148  and  _151
REMARK   60  A    between atoms: _151  and  _152
REMARK   61  A    between atoms: _152  and  _153
REMARK   62  A    between atoms: _153  and  _154
REMARK   63  A    between atoms: _163  and  _165
REMARK   64  A    between atoms: _165  and  _166
REMARK   65  A    between atoms: _168  and  _170
REMARK   66  A    between atoms: _170  and  _171
REMARK   67  A    between atoms: _173  and  _175
REMARK   68  A    between atoms: _175  and  _176
REMARK   69  A    between atoms: _175  and  _178
REMARK   70  A    between atoms: _178  and  _179
REMARK   71  A    between atoms: _184  and  _185
REMARK   72  A    between atoms: _187  and  _189
REMARK   73  A    between atoms: _189  and  _190
REMARK   74  A    between atoms: _192  and  _194
REMARK   75  A    between atoms: _194  and  _195
REMARK   76  A    between atoms: _194  and  _197
REMARK   77  A    between atoms: _197  and  _198
REMARK   78  A    between atoms: _200  and  _202
REMARK   79  A    between atoms: _202  and  _203
REMARK   80  A    between atoms: _202  and  _205
REMARK   81  A    between atoms: _205  and  _206
REMARK   82  A    between atoms: _206  and  _207
REMARK   83  A    between atoms: _207  and  _208
REMARK   84  A    between atoms: _217  and  _219
REMARK   85  A    between atoms: _219  and  _220
REMARK   86  A    between atoms: _222  and  _224
REMARK   87  A    between atoms: _224  and  _225
REMARK   88  A    between atoms: _224  and  _227
REMARK   89  A    between atoms: _227  and  _228
REMARK   90  A    between atoms: _233  and  _234
REMARK                            x       y       z     vdW  Elec       q    Type
REMARK                         _______ _______ _______ _____ _____    ______ ____
ROOT
ATOM      1  O   HOH     1      -0.314  11.624  57.560  0.00  0.00    +0.000 OA
ENDROOT
TORSDOF 0
REMARK  Name = ../refined-set-2016/4nj9/4nj9_pocket.pdb
REMARK  90 active torsions:
REMARK  status: ('A' for Active; 'I' for Inactive)
REMARK    1  A    between atoms: _1  and  _3
REMARK    2  A    between atoms: _3  and  _4
REMARK    3  A    between atoms: _3  and  _6
REMARK    4  A    between atoms: _6  and  _7
REMARK    5  A    between atoms: _9  and  _11
REMARK    6  A    between atoms: _11  and  _12
REMARK    7  A    between atoms: _11  and  _14
REMARK    8  A    between atoms: _14  and  _15
REMARK    9  A    between atoms: _20  and  _21
REMARK   10  A    between atoms: _23  and  _25
REMARK   11  A    between atoms: _25  and  _26
REMARK   12  A    between atoms: _28  and  _30
REMARK   13  A    between atoms: _30  and  _31
REMARK   14  A    between atoms: _30  and  _33
REMARK   15  A    between atoms: _33  and  _34
REMARK   16  A    between atoms: _37  and  _39
REMARK   17  A    between atoms: _39  and  _40
REMARK   18  A    between atoms: _39  and  _42
REMARK   19  A    between atoms: _42  and  _43
REMARK   20  A    between atoms: _45  and  _47
REMARK   21  A    between atoms: _47  and  _48
REMARK   22  A    between atoms: _47  and  _50
REMARK   23  A    between atoms: _50  and  _51
REMARK   24  A    between atoms: _57  and  _59
REMARK   25  A    between atoms: _59  and  _60
REMARK   26  A    between atoms: _59  and  _62
REMARK   27  A    between atoms: _62  and  _63
REMARK   28  A    between atoms: _68  and  _70
REMARK   29  A    between atoms: _70  and  _71
REMARK   30  A    between atoms: _70  and  _73
REMARK   31  A    between atoms: _73  and  _74
REMARK   32  A    between atoms: _79  and  _80
REMARK   33  A    between atoms: _82  and  _84
REMARK   34  A    between atoms: _84  and  _85
REMARK   35  A    between atoms: _84  and  _87
REMARK   36  A    between atoms: _87  and  _88
REMARK   37  A    between atoms: _88  and  _89
REMARK   38  A    between atoms: _89  and  _90
REMARK   39  A    between atoms: _99  and  _101
REMARK   40  A    between atoms: _101  and  _102
REMARK   41  A    between atoms: _101  and  _104
REMARK   42  A    between atoms: _104  and  _105
REMARK   43  A    between atoms: _110  and  _112
REMARK   44  A    between atoms: _112  and  _113
REMARK   45  A    between atoms: _112  and  _115
REMARK   46  A    between atoms: _115  and  _116
REMARK   47  A    between atoms: _118  and  _120
REMARK   48  A    between atoms: _120  and  _121
REMARK   49  A    between atoms: _120  and  _123
REMARK   50  A    between atoms: _123  and  _124
REMARK   51  A    between atoms: _129  and  _131
REMARK   52  A    between atoms: _131  and  _132
REMARK   53  A    between atoms: _131  and  _134
REMARK   54  A    between atoms: _134  and  _135
REMARK   55  A    between atoms: _135  and  _136
REMARK   56  A    between atoms: _136  and  _137
REMARK   57  A    between atoms: _146  and  _148
REMARK   58  A    between atoms: _148  and  _149
REMARK   59  A    between atoms: _148  and  _151
REMARK   60  A    between atoms: _151  and  _152
REMARK   61  A    between atoms: _152  and  _153
REMARK   62  A    between atoms: _153  and  _154
REMARK   63  A    between atoms: _163  and  _165
REMARK   64  A    between atoms: _165  and  _166
REMARK   65  A    between atoms: _168  and  _170
REMARK   66  A    between atoms: _170  and  _171
REMARK   67  A    between atoms: _173  and  _175
REMARK   68  A    between atoms: _175  and  _176
REMARK   69  A    between atoms: _175  and  _178
REMARK   70  A    between atoms: _178  and  _179
REMARK   71  A    between atoms: _184  and  _185
REMARK   72  A    between atoms: _187  and  _189
REMARK   73  A    between atoms: _189  and  _190
REMARK   74  A    between atoms: _192  and  _194
REMARK   75  A    between atoms: _194  and  _195
REMARK   76  A    between atoms: _194  and  _197
REMARK   77  A    between atoms: _197  and  _198
REMARK   78  A    between atoms: _200  and  _202
REMARK   79  A    between atoms: _202  and  _203
REMARK   80  A    between atoms: _202  and  _205
REMARK   81  A    between atoms: _205  and  _206
REMARK   82  A    between atoms: _206  and  _207
REMARK   83  A    between atoms: _207  and  _208
REMARK   84  A    between atoms: _217  and  _219
REMARK   85  A    between atoms: _219  and  _220
REMARK   86  A    between atoms: _222  and  _224
REMARK   87  A    between atoms: _224  and  _225
REMARK   88  A    between atoms: _224  and  _227
REMARK   89  A    between atoms: _227  and  _228
REMARK   90  A    between atoms: _233  and  _234
REMARK                            x       y       z     vdW  Elec       q    Type
REMARK                         _______ _______ _______ _____ _____    ______ ____
ROOT
ATOM      1  O   HOH     1      13.303  21.198  50.137  0.00  0.00    +0.000 OA
ENDROOT
TORSDOF 0
REMARK  Name = ../refined-set-2016/4nj9/4nj9_pocket.pdb
REMARK  90 active torsions:
REMARK  status: ('A' for Active; 'I' for Inactive)
REMARK    1  A    between atoms: _1  and  _3
REMARK    2  A    between atoms: _3  and  _4
REMARK    3  A    between atoms: _3  and  _6
REMARK    4  A    between atoms: _6  and  _7
REMARK    5  A    between atoms: _9  and  _11
REMARK    6  A    between atoms: _11  and  _12
REMARK    7  A    between atoms: _11  and  _14
REMARK    8  A    between atoms: _14  and  _15
REMARK    9  A    between atoms: _20  and  _21
REMARK   10  A    between atoms: _23  and  _25
REMARK   11  A    between atoms: _25  and  _26
REMARK   12  A    between atoms: _28  and  _30
REMARK   13  A    between atoms: _30  and  _31
REMARK   14  A    between atoms: _30  and  _33
REMARK   15  A    between atoms: _33  and  _34
REMARK   16  A    between atoms: _37  and  _39
REMARK   17  A    between atoms: _39  and  _40
REMARK   18  A    between atoms: _39  and  _42
REMARK   19  A    between atoms: _42  and  _43
REMARK   20  A    between atoms: _45  and  _47
REMARK   21  A    between atoms: _47  and  _48
REMARK   22  A    between atoms: _47  and  _50
REMARK   23  A    between atoms: _50  and  _51
REMARK   24  A    between atoms: _57  and  _59
REMARK   25  A    between atoms: _59  and  _60
REMARK   26  A    between atoms: _59  and  _62
REMARK   27  A    between atoms: _62  and  _63
REMARK   28  A    between atoms: _68  and  _70
REMARK   29  A    between atoms: _70  and  _71
REMARK   30  A    between atoms: _70  and  _73
REMARK   31  A    between atoms: _73  and  _74
REMARK   32  A    between atoms: _79  and  _80
REMARK   33  A    between atoms: _82  and  _84
REMARK   34  A    between atoms: _84  and  _85
REMARK   35  A    between atoms: _84  and  _87
REMARK   36  A    between atoms: _87  and  _88
REMARK   37  A    between atoms: _88  and  _89
REMARK   38  A    between atoms: _89  and  _90
REMARK   39  A    between atoms: _99  and  _101
REMARK   40  A    between atoms: _101  and  _102
REMARK   41  A    between atoms: _101  and  _104
REMARK   42  A    between atoms: _104  and  _105
REMARK   43  A    between atoms: _110  and  _112
REMARK   44  A    between atoms: _112  and  _113
REMARK   45  A    between atoms: _112  and  _115
REMARK   46  A    between atoms: _115  and  _116
REMARK   47  A    between atoms: _118  and  _120
REMARK   48  A    between atoms: _120  and  _121
REMARK   49  A    between atoms: _120  and  _123
REMARK   50  A    between atoms: _123  and  _124
REMARK   51  A    between atoms: _129  and  _131
REMARK   52  A    between atoms: _131  and  _132
REMARK   53  A    between atoms: _131  and  _134
REMARK   54  A    between atoms: _134  and  _135
REMARK   55  A    between atoms: _135  and  _136
REMARK   56  A    between atoms: _136  and  _137
REMARK   57  A    between atoms: _146  and  _148
REMARK   58  A    between atoms: _148  and  _149
REMARK   59  A    between atoms: _148  and  _151
REMARK   60  A    between atoms: _151  and  _152
REMARK   61  A    between atoms: _152  and  _153
REMARK   62  A    between atoms: _153  and  _154
REMARK   63  A    between atoms: _163  and  _165
REMARK   64  A    between atoms: _165  and  _166
REMARK   65  A    between atoms: _168  and  _170
REMARK   66  A    between atoms: _170  and  _171
REMARK   67  A    between atoms: _173  and  _175
REMARK   68  A    between atoms: _175  and  _176
REMARK   69  A    between atoms: _175  and  _178
REMARK   70  A    between atoms: _178  and  _179
REMARK   71  A    between atoms: _184  and  _185
REMARK   72  A    between atoms: _187  and  _189
REMARK   73  A    between atoms: _189  and  _190
REMARK   74  A    between atoms: _192  and  _194
REMARK   75  A    between atoms: _194  and  _195
REMARK   76  A    between atoms: _194  and  _197
REMARK   77  A    between atoms: _197  and  _198
REMARK   78  A    between atoms: _200  and  _202
REMARK   79  A    between atoms: _202  and  _203
REMARK   80  A    between atoms: _202  and  _205
REMARK   81  A    between atoms: _205  and  _206
REMARK   82  A    between atoms: _206  and  _207
REMARK   83  A    between atoms: _207  and  _208
REMARK   84  A    between atoms: _217  and  _219
REMARK   85  A    between atoms: _219  and  _220
REMARK   86  A    between atoms: _222  and  _224
REMARK   87  A    between atoms: _224  and  _225
REMARK   88  A    between atoms: _224  and  _227
REMARK   89  A    between atoms: _227  and  _228
REMARK   90  A    between atoms: _233  and  _234
REMARK                            x       y       z     vdW  Elec       q    Type
REMARK                         _______ _______ _______ _____ _____    ______ ____
ROOT
ATOM      1  O   HOH     1       9.076  12.863  60.943  0.00  0.00    +0.000 OA
ENDROOT
TORSDOF 0
REMARK  Name = ../refined-set-2016/4nj9/4nj9_pocket.pdb
REMARK  90 active torsions:
REMARK  status: ('A' for Active; 'I' for Inactive)
REMARK    1  A    between atoms: _1  and  _3
REMARK    2  A    between atoms: _3  and  _4
REMARK    3  A    between atoms: _3  and  _6
REMARK    4  A    between atoms: _6  and  _7
REMARK    5  A    between atoms: _9  and  _11
REMARK    6  A    between atoms: _11  and  _12
REMARK    7  A    between atoms: _11  and  _14
REMARK    8  A    between atoms: _14  and  _15
REMARK    9  A    between atoms: _20  and  _21
REMARK   10  A    between atoms: _23  and  _25
REMARK   11  A    between atoms: _25  and  _26
REMARK   12  A    between atoms: _28  and  _30
REMARK   13  A    between atoms: _30  and  _31
REMARK   14  A    between atoms: _30  and  _33
REMARK   15  A    between atoms: _33  and  _34
REMARK   16  A    between atoms: _37  and  _39
REMARK   17  A    between atoms: _39  and  _40
REMARK   18  A    between atoms: _39  and  _42
REMARK   19  A    between atoms: _42  and  _43
REMARK   20  A    between atoms: _45  and  _47
REMARK   21  A    between atoms: _47  and  _48
REMARK   22  A    between atoms: _47  and  _50
REMARK   23  A    between atoms: _50  and  _51
REMARK   24  A    between atoms: _57  and  _59
REMARK   25  A    between atoms: _59  and  _60
REMARK   26  A    between atoms: _59  and  _62
REMARK   27  A    between atoms: _62  and  _63
REMARK   28  A    between atoms: _68  and  _70
REMARK   29  A    between atoms: _70  and  _71
REMARK   30  A    between atoms: _70  and  _73
REMARK   31  A    between atoms: _73  and  _74
REMARK   32  A    between atoms: _79  and  _80
REMARK   33  A    between atoms: _82  and  _84
REMARK   34  A    between atoms: _84  and  _85
REMARK   35  A    between atoms: _84  and  _87
REMARK   36  A    between atoms: _87  and  _88
REMARK   37  A    between atoms: _88  and  _89
REMARK   38  A    between atoms: _89  and  _90
REMARK   39  A    between atoms: _99  and  _101
REMARK   40  A    between atoms: _101  and  _102
REMARK   41  A    between atoms: _101  and  _104
REMARK   42  A    between atoms: _104  and  _105
REMARK   43  A    between atoms: _110  and  _112
REMARK   44  A    between atoms: _112  and  _113
REMARK   45  A    between atoms: _112  and  _115
REMARK   46  A    between atoms: _115  and  _116
REMARK   47  A    between atoms: _118  and  _120
REMARK   48  A    between atoms: _120  and  _121
REMARK   49  A    between atoms: _120  and  _123
REMARK   50  A    between atoms: _123  and  _124
REMARK   51  A    between atoms: _129  and  _131
REMARK   52  A    between atoms: _131  and  _132
REMARK   53  A    between atoms: _131  and  _134
REMARK   54  A    between atoms: _134  and  _135
REMARK   55  A    between atoms: _135  and  _136
REMARK   56  A    between atoms: _136  and  _137
REMARK   57  A    between atoms: _146  and  _148
REMARK   58  A    between atoms: _148  and  _149
REMARK   59  A    between atoms: _148  and  _151
REMARK   60  A    between atoms: _151  and  _152
REMARK   61  A    between atoms: _152  and  _153
REMARK   62  A    between atoms: _153  and  _154
REMARK   63  A    between atoms: _163  and  _165
REMARK   64  A    between atoms: _165  and  _166
REMARK   65  A    between atoms: _168  and  _170
REMARK   66  A    between atoms: _170  and  _171
REMARK   67  A    between atoms: _173  and  _175
REMARK   68  A    between atoms: _175  and  _176
REMARK   69  A    between atoms: _175  and  _178
REMARK   70  A    between atoms: _178  and  _179
REMARK   71  A    between atoms: _184  and  _185
REMARK   72  A    between atoms: _187  and  _189
REMARK   73  A    between atoms: _189  and  _190
REMARK   74  A    between atoms: _192  and  _194
REMARK   75  A    between atoms: _194  and  _195
REMARK   76  A    between atoms: _194  and  _197
REMARK   77  A    between atoms: _197  and  _198
REMARK   78  A    between atoms: _200  and  _202
REMARK   79  A    between atoms: _202  and  _203
REMARK   80  A    between atoms: _202  and  _205
REMARK   81  A    between atoms: _205  and  _206
REMARK   82  A    between atoms: _206  and  _207
REMARK   83  A    between atoms: _207  and  _208
REMARK   84  A    between atoms: _217  and  _219
REMARK   85  A    between atoms: _219  and  _220
REMARK   86  A    between atoms: _222  and  _224
REMARK   87  A    between atoms: _224  and  _225
REMARK   88  A    between atoms: _224  and  _227
REMARK   89  A    between atoms: _227  and  _228
REMARK   90  A    between atoms: _233  and  _234
REMARK                            x       y       z     vdW  Elec       q    Type
REMARK                         _______ _______ _______ _____ _____    ______ ____
ROOT
ATOM      1  O   HOH     1       6.104   9.834  54.427  0.00  0.00    +0.000 OA
ENDROOT
TORSDOF 0
REMARK  Name = ../refined-set-2016/4nj9/4nj9_pocket.pdb
REMARK  90 active torsions:
REMARK  status: ('A' for Active; 'I' for Inactive)
REMARK    1  A    between atoms: _1  and  _3
REMARK    2  A    between atoms: _3  and  _4
REMARK    3  A    between atoms: _3  and  _6
REMARK    4  A    between atoms: _6  and  _7
REMARK    5  A    between atoms: _9  and  _11
REMARK    6  A    between atoms: _11  and  _12
REMARK    7  A    between atoms: _11  and  _14
REMARK    8  A    between atoms: _14  and  _15
REMARK    9  A    between atoms: _20  and  _21
REMARK   10  A    between atoms: _23  and  _25
REMARK   11  A    between atoms: _25  and  _26
REMARK   12  A    between atoms: _28  and  _30
REMARK   13  A    between atoms: _30  and  _31
REMARK   14  A    between atoms: _30  and  _33
REMARK   15  A    between atoms: _33  and  _34
REMARK   16  A    between atoms: _37  and  _39
REMARK   17  A    between atoms: _39  and  _40
REMARK   18  A    between atoms: _39  and  _42
REMARK   19  A    between atoms: _42  and  _43
REMARK   20  A    between atoms: _45  and  _47
REMARK   21  A    between atoms: _47  and  _48
REMARK   22  A    between atoms: _47  and  _50
REMARK   23  A    between atoms: _50  and  _51
REMARK   24  A    between atoms: _57  and  _59
REMARK   25  A    between atoms: _59  and  _60
REMARK   26  A    between atoms: _59  and  _62
REMARK   27  A    between atoms: _62  and  _63
REMARK   28  A    between atoms: _68  and  _70
REMARK   29  A    between atoms: _70  and  _71
REMARK   30  A    between atoms: _70  and  _73
REMARK   31  A    between atoms: _73  and  _74
REMARK   32  A    between atoms: _79  and  _80
REMARK   33  A    between atoms: _82  and  _84
REMARK   34  A    between atoms: _84  and  _85
REMARK   35  A    between atoms: _84  and  _87
REMARK   36  A    between atoms: _87  and  _88
REMARK   37  A    between atoms: _88  and  _89
REMARK   38  A    between atoms: _89  and  _90
REMARK   39  A    between atoms: _99  and  _101
REMARK   40  A    between atoms: _101  and  _102
REMARK   41  A    between atoms: _101  and  _104
REMARK   42  A    between atoms: _104  and  _105
REMARK   43  A    between atoms: _110  and  _112
REMARK   44  A    between atoms: _112  and  _113
REMARK   45  A    between atoms: _112  and  _115
REMARK   46  A    between atoms: _115  and  _116
REMARK   47  A    between atoms: _118  and  _120
REMARK   48  A    between atoms: _120  and  _121
REMARK   49  A    between atoms: _120  and  _123
REMARK   50  A    between atoms: _123  and  _124
REMARK   51  A    between atoms: _129  and  _131
REMARK   52  A    between atoms: _131  and  _132
REMARK   53  A    between atoms: _131  and  _134
REMARK   54  A    between atoms: _134  and  _135
REMARK   55  A    between atoms: _135  and  _136
REMARK   56  A    between atoms: _136  and  _137
REMARK   57  A    between atoms: _146  and  _148
REMARK   58  A    between atoms: _148  and  _149
REMARK   59  A    between atoms: _148  and  _151
REMARK   60  A    between atoms: _151  and  _152
REMARK   61  A    between atoms: _152  and  _153
REMARK   62  A    between atoms: _153  and  _154
REMARK   63  A    between atoms: _163  and  _165
REMARK   64  A    between atoms: _165  and  _166
REMARK   65  A    between atoms: _168  and  _170
REMARK   66  A    between atoms: _170  and  _171
REMARK   67  A    between atoms: _173  and  _175
REMARK   68  A    between atoms: _175  and  _176
REMARK   69  A    between atoms: _175  and  _178
REMARK   70  A    between atoms: _178  and  _179
REMARK   71  A    between atoms: _184  and  _185
REMARK   72  A    between atoms: _187  and  _189
REMARK   73  A    between atoms: _189  and  _190
REMARK   74  A    between atoms: _192  and  _194
REMARK   75  A    between atoms: _194  and  _195
REMARK   76  A    between atoms: _194  and  _197
REMARK   77  A    between atoms: _197  and  _198
REMARK   78  A    between atoms: _200  and  _202
REMARK   79  A    between atoms: _202  and  _203
REMARK   80  A    between atoms: _202  and  _205
REMARK   81  A    between atoms: _205  and  _206
REMARK   82  A    between atoms: _206  and  _207
REMARK   83  A    between atoms: _207  and  _208
REMARK   84  A    between atoms: _217  and  _219
REMARK   85  A    between atoms: _219  and  _220
REMARK   86  A    between atoms: _222  and  _224
REMARK   87  A    between atoms: _224  and  _225
REMARK   88  A    between atoms: _224  and  _227
REMARK   89  A    between atoms: _227  and  _228
REMARK   90  A    between atoms: _233  and  _234
REMARK                            x       y       z     vdW  Elec       q    Type
REMARK                         _______ _______ _______ _____ _____    ______ ____
ROOT
ATOM      1  O   HOH     1       2.574  16.678  50.699  0.00  0.00    +0.000 OA
ENDROOT
TORSDOF 0
REMARK  Name = ../refined-set-2016/4nj9/4nj9_pocket.pdb
REMARK  90 active torsions:
REMARK  status: ('A' for Active; 'I' for Inactive)
REMARK    1  A    between atoms: _1  and  _3
REMARK    2  A    between atoms: _3  and  _4
REMARK    3  A    between atoms: _3  and  _6
REMARK    4  A    between atoms: _6  and  _7
REMARK    5  A    between atoms: _9  and  _11
REMARK    6  A    between atoms: _11  and  _12
REMARK    7  A    between atoms: _11  and  _14
REMARK    8  A    between atoms: _14  and  _15
REMARK    9  A    between atoms: _20  and  _21
REMARK   10  A    between atoms: _23  and  _25
REMARK   11  A    between atoms: _25  and  _26
REMARK   12  A    between atoms: _28  and  _30
REMARK   13  A    between atoms: _30  and  _31
REMARK   14  A    between atoms: _30  and  _33
REMARK   15  A    between atoms: _33  and  _34
REMARK   16  A    between atoms: _37  and  _39
REMARK   17  A    between atoms: _39  and  _40
REMARK   18  A    between atoms: _39  and  _42
REMARK   19  A    between atoms: _42  and  _43
REMARK   20  A    between atoms: _45  and  _47
REMARK   21  A    between atoms: _47  and  _48
REMARK   22  A    between atoms: _47  and  _50
REMARK   23  A    between atoms: _50  and  _51
REMARK   24  A    between atoms: _57  and  _59
REMARK   25  A    between atoms: _59  and  _60
REMARK   26  A    between atoms: _59  and  _62
REMARK   27  A    between atoms: _62  and  _63
REMARK   28  A    between atoms: _68  and  _70
REMARK   29  A    between atoms: _70  and  _71
REMARK   30  A    between atoms: _70  and  _73
REMARK   31  A    between atoms: _73  and  _74
REMARK   32  A    between atoms: _79  and  _80
REMARK   33  A    between atoms: _82  and  _84
REMARK   34  A    between atoms: _84  and  _85
REMARK   35  A    between atoms: _84  and  _87
REMARK   36  A    between atoms: _87  and  _88
REMARK   37  A    between atoms: _88  and  _89
REMARK   38  A    between atoms: _89  and  _90
REMARK   39  A    between atoms: _99  and  _101
REMARK   40  A    between atoms: _101  and  _102
REMARK   41  A    between atoms: _101  and  _104
REMARK   42  A    between atoms: _104  and  _105
REMARK   43  A    between atoms: _110  and  _112
REMARK   44  A    between atoms: _112  and  _113
REMARK   45  A    between atoms: _112  and  _115
REMARK   46  A    between atoms: _115  and  _116
REMARK   47  A    between atoms: _118  and  _120
REMARK   48  A    between atoms: _120  and  _121
REMARK   49  A    between atoms: _120  and  _123
REMARK   50  A    between atoms: _123  and  _124
REMARK   51  A    between atoms: _129  and  _131
REMARK   52  A    between atoms: _131  and  _132
REMARK   53  A    between atoms: _131  and  _134
REMARK   54  A    between atoms: _134  and  _135
REMARK   55  A    between atoms: _135  and  _136
REMARK   56  A    between atoms: _136  and  _137
REMARK   57  A    between atoms: _146  and  _148
REMARK   58  A    between atoms: _148  and  _149
REMARK   59  A    between atoms: _148  and  _151
REMARK   60  A    between atoms: _151  and  _152
REMARK   61  A    between atoms: _152  and  _153
REMARK   62  A    between atoms: _153  and  _154
REMARK   63  A    between atoms: _163  and  _165
REMARK   64  A    between atoms: _165  and  _166
REMARK   65  A    between atoms: _168  and  _170
REMARK   66  A    between atoms: _170  and  _171
REMARK   67  A    between atoms: _173  and  _175
REMARK   68  A    between atoms: _175  and  _176
REMARK   69  A    between atoms: _175  and  _178
REMARK   70  A    between atoms: _178  and  _179
REMARK   71  A    between atoms: _184  and  _185
REMARK   72  A    between atoms: _187  and  _189
REMARK   73  A    between atoms: _189  and  _190
REMARK   74  A    between atoms: _192  and  _194
REMARK   75  A    between atoms: _194  and  _195
REMARK   76  A    between atoms: _194  and  _197
REMARK   77  A    between atoms: _197  and  _198
REMARK   78  A    between atoms: _200  and  _202
REMARK   79  A    between atoms: _202  and  _203
REMARK   80  A    between atoms: _202  and  _205
REMARK   81  A    between atoms: _205  and  _206
REMARK   82  A    between atoms: _206  and  _207
REMARK   83  A    between atoms: _207  and  _208
REMARK   84  A    between atoms: _217  and  _219
REMARK   85  A    between atoms: _219  and  _220
REMARK   86  A    between atoms: _222  and  _224
REMARK   87  A    between atoms: _224  and  _225
REMARK   88  A    between atoms: _224  and  _227
REMARK   89  A    between atoms: _227  and  _228
REMARK   90  A    between atoms: _233  and  _234
REMARK                            x       y       z     vdW  Elec       q    Type
REMARK                         _______ _______ _______ _____ _____    ______ ____
ROOT
ATOM      1  O   HOH     1      -2.715  16.560  54.132  0.00  0.00    +0.000 OA
ENDROOT
TORSDOF 0
REMARK  Name = ../refined-set-2016/4nj9/4nj9_pocket.pdb
REMARK  90 active torsions:
REMARK  status: ('A' for Active; 'I' for Inactive)
REMARK    1  A    between atoms: _1  and  _3
REMARK    2  A    between atoms: _3  and  _4
REMARK    3  A    between atoms: _3  and  _6
REMARK    4  A    between atoms: _6  and  _7
REMARK    5  A    between atoms: _9  and  _11
REMARK    6  A    between atoms: _11  and  _12
REMARK    7  A    between atoms: _11  and  _14
REMARK    8  A    between atoms: _14  and  _15
REMARK    9  A    between atoms: _20  and  _21
REMARK   10  A    between atoms: _23  and  _25
REMARK   11  A    between atoms: _25  and  _26
REMARK   12  A    between atoms: _28  and  _30
REMARK   13  A    between atoms: _30  and  _31
REMARK   14  A    between atoms: _30  and  _33
REMARK   15  A    between atoms: _33  and  _34
REMARK   16  A    between atoms: _37  and  _39
REMARK   17  A    between atoms: _39  and  _40
REMARK   18  A    between atoms: _39  and  _42
REMARK   19  A    between atoms: _42  and  _43
REMARK   20  A    between atoms: _45  and  _47
REMARK   21  A    between atoms: _47  and  _48
REMARK   22  A    between atoms: _47  and  _50
REMARK   23  A    between atoms: _50  and  _51
REMARK   24  A    between atoms: _57  and  _59
REMARK   25  A    between atoms: _59  and  _60
REMARK   26  A    between atoms: _59  and  _62
REMARK   27  A    between atoms: _62  and  _63
REMARK   28  A    between atoms: _68  and  _70
REMARK   29  A    between atoms: _70  and  _71
REMARK   30  A    between atoms: _70  and  _73
REMARK   31  A    between atoms: _73  and  _74
REMARK   32  A    between atoms: _79  and  _80
REMARK   33  A    between atoms: _82  and  _84
REMARK   34  A    between atoms: _84  and  _85
REMARK   35  A    between atoms: _84  and  _87
REMARK   36  A    between atoms: _87  and  _88
REMARK   37  A    between atoms: _88  and  _89
REMARK   38  A    between atoms: _89  and  _90
REMARK   39  A    between atoms: _99  and  _101
REMARK   40  A    between atoms: _101  and  _102
REMARK   41  A    between atoms: _101  and  _104
REMARK   42  A    between atoms: _104  and  _105
REMARK   43  A    between atoms: _110  and  _112
REMARK   44  A    between atoms: _112  and  _113
REMARK   45  A    between atoms: _112  and  _115
REMARK   46  A    between atoms: _115  and  _116
REMARK   47  A    between atoms: _118  and  _120
REMARK   48  A    between atoms: _120  and  _121
REMARK   49  A    between atoms: _120  and  _123
REMARK   50  A    between atoms: _123  and  _124
REMARK   51  A    between atoms: _129  and  _131
REMARK   52  A    between atoms: _131  and  _132
REMARK   53  A    between atoms: _131  and  _134
REMARK   54  A    between atoms: _134  and  _135
REMARK   55  A    between atoms: _135  and  _136
REMARK   56  A    between atoms: _136  and  _137
REMARK   57  A    between atoms: _146  and  _148
REMARK   58  A    between atoms: _148  and  _149
REMARK   59  A    between atoms: _148  and  _151
REMARK   60  A    between atoms: _151  and  _152
REMARK   61  A    between atoms: _152  and  _153
REMARK   62  A    between atoms: _153  and  _154
REMARK   63  A    between atoms: _163  and  _165
REMARK   64  A    between atoms: _165  and  _166
REMARK   65  A    between atoms: _168  and  _170
REMARK   66  A    between atoms: _170  and  _171
REMARK   67  A    between atoms: _173  and  _175
REMARK   68  A    between atoms: _175  and  _176
REMARK   69  A    between atoms: _175  and  _178
REMARK   70  A    between atoms: _178  and  _179
REMARK   71  A    between atoms: _184  and  _185
REMARK   72  A    between atoms: _187  and  _189
REMARK   73  A    between atoms: _189  and  _190
REMARK   74  A    between atoms: _192  and  _194
REMARK   75  A    between atoms: _194  and  _195
REMARK   76  A    between atoms: _194  and  _197
REMARK   77  A    between atoms: _197  and  _198
REMARK   78  A    between atoms: _200  and  _202
REMARK   79  A    between atoms: _202  and  _203
REMARK   80  A    between atoms: _202  and  _205
REMARK   81  A    between atoms: _205  and  _206
REMARK   82  A    between atoms: _206  and  _207
REMARK   83  A    between atoms: _207  and  _208
REMARK   84  A    between atoms: _217  and  _219
REMARK   85  A    between atoms: _219  and  _220
REMARK   86  A    between atoms: _222  and  _224
REMARK   87  A    between atoms: _224  and  _225
REMARK   88  A    between atoms: _224  and  _227
REMARK   89  A    between atoms: _227  and  _228
REMARK   90  A    between atoms: _233  and  _234
REMARK                            x       y       z     vdW  Elec       q    Type
REMARK                         _______ _______ _______ _____ _____    ______ ____
ROOT
ATOM      1  O   HOH     1      13.913  22.563  54.716  0.00  0.00    +0.000 OA
ENDROOT
TORSDOF 0
REMARK  Name = ../refined-set-2016/4nj9/4nj9_pocket.pdb
REMARK  90 active torsions:
REMARK  status: ('A' for Active; 'I' for Inactive)
REMARK    1  A    between atoms: _1  and  _3
REMARK    2  A    between atoms: _3  and  _4
REMARK    3  A    between atoms: _3  and  _6
REMARK    4  A    between atoms: _6  and  _7
REMARK    5  A    between atoms: _9  and  _11
REMARK    6  A    between atoms: _11  and  _12
REMARK    7  A    between atoms: _11  and  _14
REMARK    8  A    between atoms: _14  and  _15
REMARK    9  A    between atoms: _20  and  _21
REMARK   10  A    between atoms: _23  and  _25
REMARK   11  A    between atoms: _25  and  _26
REMARK   12  A    between atoms: _28  and  _30
REMARK   13  A    between atoms: _30  and  _31
REMARK   14  A    between atoms: _30  and  _33
REMARK   15  A    between atoms: _33  and  _34
REMARK   16  A    between atoms: _37  and  _39
REMARK   17  A    between atoms: _39  and  _40
REMARK   18  A    between atoms: _39  and  _42
REMARK   19  A    between atoms: _42  and  _43
REMARK   20  A    between atoms: _45  and  _47
REMARK   21  A    between atoms: _47  and  _48
REMARK   22  A    between atoms: _47  and  _50
REMARK   23  A    between atoms: _50  and  _51
REMARK   24  A    between atoms: _57  and  _59
REMARK   25  A    between atoms: _59  and  _60
REMARK   26  A    between atoms: _59  and  _62
REMARK   27  A    between atoms: _62  and  _63
REMARK   28  A    between atoms: _68  and  _70
REMARK   29  A    between atoms: _70  and  _71
REMARK   30  A    between atoms: _70  and  _73
REMARK   31  A    between atoms: _73  and  _74
REMARK   32  A    between atoms: _79  and  _80
REMARK   33  A    between atoms: _82  and  _84
REMARK   34  A    between atoms: _84  and  _85
REMARK   35  A    between atoms: _84  and  _87
REMARK   36  A    between atoms: _87  and  _88
REMARK   37  A    between atoms: _88  and  _89
REMARK   38  A    between atoms: _89  and  _90
REMARK   39  A    between atoms: _99  and  _101
REMARK   40  A    between atoms: _101  and  _102
REMARK   41  A    between atoms: _101  and  _104
REMARK   42  A    between atoms: _104  and  _105
REMARK   43  A    between atoms: _110  and  _112
REMARK   44  A    between atoms: _112  and  _113
REMARK   45  A    between atoms: _112  and  _115
REMARK   46  A    between atoms: _115  and  _116
REMARK   47  A    between atoms: _118  and  _120
REMARK   48  A    between atoms: _120  and  _121
REMARK   49  A    between atoms: _120  and  _123
REMARK   50  A    between atoms: _123  and  _124
REMARK   51  A    between atoms: _129  and  _131
REMARK   52  A    between atoms: _131  and  _132
REMARK   53  A    between atoms: _131  and  _134
REMARK   54  A    between atoms: _134  and  _135
REMARK   55  A    between atoms: _135  and  _136
REMARK   56  A    between atoms: _136  and  _137
REMARK   57  A    between atoms: _146  and  _148
REMARK   58  A    between atoms: _148  and  _149
REMARK   59  A    between atoms: _148  and  _151
REMARK   60  A    between atoms: _151  and  _152
REMARK   61  A    between atoms: _152  and  _153
REMARK   62  A    between atoms: _153  and  _154
REMARK   63  A    between atoms: _163  and  _165
REMARK   64  A    between atoms: _165  and  _166
REMARK   65  A    between atoms: _168  and  _170
REMARK   66  A    between atoms: _170  and  _171
REMARK   67  A    between atoms: _173  and  _175
REMARK   68  A    between atoms: _175  and  _176
REMARK   69  A    between atoms: _175  and  _178
REMARK   70  A    between atoms: _178  and  _179
REMARK   71  A    between atoms: _184  and  _185
REMARK   72  A    between atoms: _187  and  _189
REMARK   73  A    between atoms: _189  and  _190
REMARK   74  A    between atoms: _192  and  _194
REMARK   75  A    between atoms: _194  and  _195
REMARK   76  A    between atoms: _194  and  _197
REMARK   77  A    between atoms: _197  and  _198
REMARK   78  A    between atoms: _200  and  _202
REMARK   79  A    between atoms: _202  and  _203
REMARK   80  A    between atoms: _202  and  _205
REMARK   81  A    between atoms: _205  and  _206
REMARK   82  A    between atoms: _206  and  _207
REMARK   83  A    between atoms: _207  and  _208
REMARK   84  A    between atoms: _217  and  _219
REMARK   85  A    between atoms: _219  and  _220
REMARK   86  A    between atoms: _222  and  _224
REMARK   87  A    between atoms: _224  and  _225
REMARK   88  A    between atoms: _224  and  _227
REMARK   89  A    between atoms: _227  and  _228
REMARK   90  A    between atoms: _233  and  _234
REMARK                            x       y       z     vdW  Elec       q    Type
REMARK                         _______ _______ _______ _____ _____    ______ ____
ROOT
ATOM      1  O   HOH     1       5.237  24.719  54.558  0.00  0.00    +0.000 OA
ENDROOT
TORSDOF 0
REMARK  Name = ../refined-set-2016/4nj9/4nj9_pocket.pdb
REMARK  90 active torsions:
REMARK  status: ('A' for Active; 'I' for Inactive)
REMARK    1  A    between atoms: _1  and  _3
REMARK    2  A    between atoms: _3  and  _4
REMARK    3  A    between atoms: _3  and  _6
REMARK    4  A    between atoms: _6  and  _7
REMARK    5  A    between atoms: _9  and  _11
REMARK    6  A    between atoms: _11  and  _12
REMARK    7  A    between atoms: _11  and  _14
REMARK    8  A    between atoms: _14  and  _15
REMARK    9  A    between atoms: _20  and  _21
REMARK   10  A    between atoms: _23  and  _25
REMARK   11  A    between atoms: _25  and  _26
REMARK   12  A    between atoms: _28  and  _30
REMARK   13  A    between atoms: _30  and  _31
REMARK   14  A    between atoms: _30  and  _33
REMARK   15  A    between atoms: _33  and  _34
REMARK   16  A    between atoms: _37  and  _39
REMARK   17  A    between atoms: _39  and  _40
REMARK   18  A    between atoms: _39  and  _42
REMARK   19  A    between atoms: _42  and  _43
REMARK   20  A    between atoms: _45  and  _47
REMARK   21  A    between atoms: _47  and  _48
REMARK   22  A    between atoms: _47  and  _50
REMARK   23  A    between atoms: _50  and  _51
REMARK   24  A    between atoms: _57  and  _59
REMARK   25  A    between atoms: _59  and  _60
REMARK   26  A    between atoms: _59  and  _62
REMARK   27  A    between atoms: _62  and  _63
REMARK   28  A    between atoms: _68  and  _70
REMARK   29  A    between atoms: _70  and  _71
REMARK   30  A    between atoms: _70  and  _73
REMARK   31  A    between atoms: _73  and  _74
REMARK   32  A    between atoms: _79  and  _80
REMARK   33  A    between atoms: _82  and  _84
REMARK   34  A    between atoms: _84  and  _85
REMARK   35  A    between atoms: _84  and  _87
REMARK   36  A    between atoms: _87  and  _88
REMARK   37  A    between atoms: _88  and  _89
REMARK   38  A    between atoms: _89  and  _90
REMARK   39  A    between atoms: _99  and  _101
REMARK   40  A    between atoms: _101  and  _102
REMARK   41  A    between atoms: _101  and  _104
REMARK   42  A    between atoms: _104  and  _105
REMARK   43  A    between atoms: _110  and  _112
REMARK   44  A    between atoms: _112  and  _113
REMARK   45  A    between atoms: _112  and  _115
REMARK   46  A    between atoms: _115  and  _116
REMARK   47  A    between atoms: _118  and  _120
REMARK   48  A    between atoms: _120  and  _121
REMARK   49  A    between atoms: _120  and  _123
REMARK   50  A    between atoms: _123  and  _124
REMARK   51  A    between atoms: _129  and  _131
REMARK   52  A    between atoms: _131  and  _132
REMARK   53  A    between atoms: _131  and  _134
REMARK   54  A    between atoms: _134  and  _135
REMARK   55  A    between atoms: _135  and  _136
REMARK   56  A    between atoms: _136  and  _137
REMARK   57  A    between atoms: _146  and  _148
REMARK   58  A    between atoms: _148  and  _149
REMARK   59  A    between atoms: _148  and  _151
REMARK   60  A    between atoms: _151  and  _152
REMARK   61  A    between atoms: _152  and  _153
REMARK   62  A    between atoms: _153  and  _154
REMARK   63  A    between atoms: _163  and  _165
REMARK   64  A    between atoms: _165  and  _166
REMARK   65  A    between atoms: _168  and  _170
REMARK   66  A    between atoms: _170  and  _171
REMARK   67  A    between atoms: _173  and  _175
REMARK   68  A    between atoms: _175  and  _176
REMARK   69  A    between atoms: _175  and  _178
REMARK   70  A    between atoms: _178  and  _179
REMARK   71  A    between atoms: _184  and  _185
REMARK   72  A    between atoms: _187  and  _189
REMARK   73  A    between atoms: _189  and  _190
REMARK   74  A    between atoms: _192  and  _194
REMARK   75  A    between atoms: _194  and  _195
REMARK   76  A    between atoms: _194  and  _197
REMARK   77  A    between atoms: _197  and  _198
REMARK   78  A    between atoms: _200  and  _202
REMARK   79  A    between atoms: _202  and  _203
REMARK   80  A    between atoms: _202  and  _205
REMARK   81  A    between atoms: _205  and  _206
REMARK   82  A    between atoms: _206  and  _207
REMARK   83  A    between atoms: _207  and  _208
REMARK   84  A    between atoms: _217  and  _219
REMARK   85  A    between atoms: _219  and  _220
REMARK   86  A    between atoms: _222  and  _224
REMARK   87  A    between atoms: _224  and  _225
REMARK   88  A    between atoms: _224  and  _227
REMARK   89  A    between atoms: _227  and  _228
REMARK   90  A    between atoms: _233  and  _234
REMARK                            x       y       z     vdW  Elec       q    Type
REMARK                         _______ _______ _______ _____ _____    ______ ____
ROOT
ATOM      1  O   HOH     1      -2.098  25.597  55.888  0.00  0.00    +0.000 OA
ENDROOT
TORSDOF 0
REMARK  Name = ../refined-set-2016/4nj9/4nj9_pocket.pdb
REMARK  90 active torsions:
REMARK  status: ('A' for Active; 'I' for Inactive)
REMARK    1  A    between atoms: _1  and  _3
REMARK    2  A    between atoms: _3  and  _4
REMARK    3  A    between atoms: _3  and  _6
REMARK    4  A    between atoms: _6  and  _7
REMARK    5  A    between atoms: _9  and  _11
REMARK    6  A    between atoms: _11  and  _12
REMARK    7  A    between atoms: _11  and  _14
REMARK    8  A    between atoms: _14  and  _15
REMARK    9  A    between atoms: _20  and  _21
REMARK   10  A    between atoms: _23  and  _25
REMARK   11  A    between atoms: _25  and  _26
REMARK   12  A    between atoms: _28  and  _30
REMARK   13  A    between atoms: _30  and  _31
REMARK   14  A    between atoms: _30  and  _33
REMARK   15  A    between atoms: _33  and  _34
REMARK   16  A    between atoms: _37  and  _39
REMARK   17  A    between atoms: _39  and  _40
REMARK   18  A    between atoms: _39  and  _42
REMARK   19  A    between atoms: _42  and  _43
REMARK   20  A    between atoms: _45  and  _47
REMARK   21  A    between atoms: _47  and  _48
REMARK   22  A    between atoms: _47  and  _50
REMARK   23  A    between atoms: _50  and  _51
REMARK   24  A    between atoms: _57  and  _59
REMARK   25  A    between atoms: _59  and  _60
REMARK   26  A    between atoms: _59  and  _62
REMARK   27  A    between atoms: _62  and  _63
REMARK   28  A    between atoms: _68  and  _70
REMARK   29  A    between atoms: _70  and  _71
REMARK   30  A    between atoms: _70  and  _73
REMARK   31  A    between atoms: _73  and  _74
REMARK   32  A    between atoms: _79  and  _80
REMARK   33  A    between atoms: _82  and  _84
REMARK   34  A    between atoms: _84  and  _85
REMARK   35  A    between atoms: _84  and  _87
REMARK   36  A    between atoms: _87  and  _88
REMARK   37  A    between atoms: _88  and  _89
REMARK   38  A    between atoms: _89  and  _90
REMARK   39  A    between atoms: _99  and  _101
REMARK   40  A    between atoms: _101  and  _102
REMARK   41  A    between atoms: _101  and  _104
REMARK   42  A    between atoms: _104  and  _105
REMARK   43  A    between atoms: _110  and  _112
REMARK   44  A    between atoms: _112  and  _113
REMARK   45  A    between atoms: _112  and  _115
REMARK   46  A    between atoms: _115  and  _116
REMARK   47  A    between atoms: _118  and  _120
REMARK   48  A    between atoms: _120  and  _121
REMARK   49  A    between atoms: _120  and  _123
REMARK   50  A    between atoms: _123  and  _124
REMARK   51  A    between atoms: _129  and  _131
REMARK   52  A    between atoms: _131  and  _132
REMARK   53  A    between atoms: _131  and  _134
REMARK   54  A    between atoms: _134  and  _135
REMARK   55  A    between atoms: _135  and  _136
REMARK   56  A    between atoms: _136  and  _137
REMARK   57  A    between atoms: _146  and  _148
REMARK   58  A    between atoms: _148  and  _149
REMARK   59  A    between atoms: _148  and  _151
REMARK   60  A    between atoms: _151  and  _152
REMARK   61  A    between atoms: _152  and  _153
REMARK   62  A    between atoms: _153  and  _154
REMARK   63  A    between atoms: _163  and  _165
REMARK   64  A    between atoms: _165  and  _166
REMARK   65  A    between atoms: _168  and  _170
REMARK   66  A    between atoms: _170  and  _171
REMARK   67  A    between atoms: _173  and  _175
REMARK   68  A    between atoms: _175  and  _176
REMARK   69  A    between atoms: _175  and  _178
REMARK   70  A    between atoms: _178  and  _179
REMARK   71  A    between atoms: _184  and  _185
REMARK   72  A    between atoms: _187  and  _189
REMARK   73  A    between atoms: _189  and  _190
REMARK   74  A    between atoms: _192  and  _194
REMARK   75  A    between atoms: _194  and  _195
REMARK   76  A    between atoms: _194  and  _197
REMARK   77  A    between atoms: _197  and  _198
REMARK   78  A    between atoms: _200  and  _202
REMARK   79  A    between atoms: _202  and  _203
REMARK   80  A    between atoms: _202  and  _205
REMARK   81  A    between atoms: _205  and  _206
REMARK   82  A    between atoms: _206  and  _207
REMARK   83  A    between atoms: _207  and  _208
REMARK   84  A    between atoms: _217  and  _219
REMARK   85  A    between atoms: _219  and  _220
REMARK   86  A    between atoms: _222  and  _224
REMARK   87  A    between atoms: _224  and  _225
REMARK   88  A    between atoms: _224  and  _227
REMARK   89  A    between atoms: _227  and  _228
REMARK   90  A    between atoms: _233  and  _234
REMARK                            x       y       z     vdW  Elec       q    Type
REMARK                         _______ _______ _______ _____ _____    ______ ____
ROOT
ATOM      1  O   HOH     1       8.034  25.806  53.288  0.00  0.00    +0.000 OA
ENDROOT
TORSDOF 0
