REMARK  Name = ../refined-set-2016/4llj/4llj_pocket.pdb
REMARK  100 active torsions:
REMARK  status: ('A' for Active; 'I' for Inactive)
REMARK    1  A    between atoms: _1  and  _3
REMARK    2  A    between atoms: _3  and  _4
REMARK    3  A    between atoms: _3  and  _6
REMARK    4  A    between atoms: _6  and  _7
REMARK    5  A    between atoms: _12  and  _13
REMARK    6  A    between atoms: _15  and  _17
REMARK    7  A    between atoms: _17  and  _18
REMARK    8  A    between atoms: _17  and  _20
REMARK    9  A    between atoms: _20  and  _21
REMARK   10  A    between atoms: _26  and  _28
REMARK   11  A    between atoms: _28  and  _29
REMARK   12  A    between atoms: _28  and  _31
REMARK   13  A    between atoms: _31  and  _32
REMARK   14  A    between atoms: _36  and  NI_250
REMARK   15  A    between atoms: _37  and  _39
REMARK   16  A    between atoms: _39  and  _40
REMARK   17  A    between atoms: _39  and  _42
REMARK   18  A    between atoms: _42  and  _43
REMARK   19  A    between atoms: _46  and  _48
REMARK   20  A    between atoms: _48  and  _49
REMARK   21  A    between atoms: _48  and  _51
REMARK   22  A    between atoms: _51  and  _52
REMARK   23  A    between atoms: _52  and  _54
REMARK   24  A    between atoms: _54  and  NI_250
REMARK   25  A    between atoms: _55  and  _57
REMARK   26  A    between atoms: _57  and  _58
REMARK   27  A    between atoms: _57  and  _60
REMARK   28  A    between atoms: _60  and  _61
REMARK   29  A    between atoms: _64  and  _66
REMARK   30  A    between atoms: _66  and  _67
REMARK   31  A    between atoms: _66  and  _69
REMARK   32  A    between atoms: _71  and  _73
REMARK   33  A    between atoms: _73  and  _74
REMARK   34  A    between atoms: _73  and  _76
REMARK   35  A    between atoms: _76  and  _77
REMARK   36  A    between atoms: _79  and  _81
REMARK   37  A    between atoms: _81  and  _82
REMARK   38  A    between atoms: _81  and  _84
REMARK   39  A    between atoms: _87  and  _89
REMARK   40  A    between atoms: _89  and  _90
REMARK   41  A    between atoms: _89  and  _92
REMARK   42  A    between atoms: _92  and  _93
REMARK   43  A    between atoms: _96  and  _98
REMARK   44  A    between atoms: _98  and  _99
REMARK   45  A    between atoms: _98  and  _101
REMARK   46  A    between atoms: _101  and  _102
REMARK   47  A    between atoms: _105  and  _107
REMARK   48  A    between atoms: _107  and  _108
REMARK   49  A    between atoms: _111  and  _113
REMARK   50  A    between atoms: _113  and  _114
REMARK   51  A    between atoms: _113  and  _116
REMARK   52  A    between atoms: _116  and  _117
REMARK   53  A    between atoms: _120  and  _122
REMARK   54  A    between atoms: _122  and  _123
REMARK   55  A    between atoms: _122  and  _125
REMARK   56  A    between atoms: _125  and  _126
REMARK   57  A    between atoms: _131  and  _132
REMARK   58  A    between atoms: _134  and  _136
REMARK   59  A    between atoms: _136  and  _137
REMARK   60  A    between atoms: _136  and  _139
REMARK   61  A    between atoms: _139  and  _140
REMARK   62  A    between atoms: _146  and  _148
REMARK   63  A    between atoms: _148  and  _149
REMARK   64  A    between atoms: _148  and  _151
REMARK   65  A    between atoms: _151  and  _152
REMARK   66  A    between atoms: _152  and  _153
REMARK   67  A    between atoms: _155  and  _157
REMARK   68  A    between atoms: _157  and  _158
REMARK   69  A    between atoms: _157  and  _160
REMARK   70  A    between atoms: _163  and  _165
REMARK   71  A    between atoms: _165  and  _166
REMARK   72  A    between atoms: _168  and  _170
REMARK   73  A    between atoms: _170  and  _171
REMARK   74  A    between atoms: _170  and  _173
REMARK   75  A    between atoms: _173  and  _174
REMARK   76  A    between atoms: _174  and  _175
REMARK   77  A    between atoms: _180  and  _182
REMARK   78  A    between atoms: _182  and  _183
REMARK   79  A    between atoms: _182  and  _185
REMARK   80  A    between atoms: _185  and  _186
REMARK   81  A    between atoms: _189  and  _191
REMARK   82  A    between atoms: _191  and  _192
REMARK   83  A    between atoms: _194  and  _196
REMARK   84  A    between atoms: _196  and  _197
REMARK   85  A    between atoms: _196  and  _199
REMARK   86  A    between atoms: _199  and  _200
REMARK   87  A    between atoms: _206  and  _208
REMARK   88  A    between atoms: _208  and  _209
REMARK   89  A    between atoms: _208  and  _211
REMARK   90  A    between atoms: _211  and  _212
REMARK   91  A    between atoms: _217  and  _218
REMARK   92  A    between atoms: _220  and  _222
REMARK   93  A    between atoms: _222  and  _223
REMARK   94  A    between atoms: _222  and  _225
REMARK   95  A    between atoms: _228  and  _230
REMARK   96  A    between atoms: _230  and  _231
REMARK   97  A    between atoms: _234  and  _236
REMARK   98  A    between atoms: _236  and  _237
REMARK   99  A    between atoms: _236  and  _239
REMARK  100  A    between atoms: _239  and  _240
REMARK                            x       y       z     vdW  Elec       q    Type
REMARK                         _______ _______ _______ _____ _____    ______ ____
ROOT
ATOM      1  C   TYR A   1      13.869  12.734  48.082  0.00  0.00    +0.239 C 
ATOM      2  O   TYR A   1      13.429  12.431  49.195  0.00  0.00    -0.274 OA
ATOM      3  N   HIS A   2      14.420  11.850  47.253  0.00  0.00    -0.298 N 
ATOM      4  H   HIS A   2      14.809  12.175  46.345  0.00  0.00    +0.150 HD
ENDROOT
BRANCH   1   5
ATOM      5  CA  TYR A   1      13.707  14.184  47.590  0.00  0.00    +0.149 C 
BRANCH   5   6
ATOM      6  N   TYR A   1      14.962  14.790  47.078  0.00  0.00    -0.238 NA
ATOM      7  H   TYR A   1      15.512  14.290  46.350  0.00  0.00    +0.142 HD
ENDBRANCH   5   6
BRANCH   5   8
ATOM      8  CB  TYR A   1      12.605  14.237  46.554  0.00  0.00    +0.053 C 
BRANCH   8   9
ATOM      9  CG  TYR A   1      11.333  13.609  47.087  0.00  0.00    -0.020 A 
ATOM     10  CD2 TYR A   1      10.638  14.213  48.138  0.00  0.00    -0.001 A 
ATOM     11  CE2 TYR A   1       9.480  13.649  48.655  0.00  0.00    +0.036 A 
ATOM     12  CZ  TYR A   1       9.003  12.457  48.140  0.00  0.00    +0.134 A 
ATOM     13  CE1 TYR A   1       9.658  11.823  47.118  0.00  0.00    +0.036 A 
ATOM     14  CD1 TYR A   1      10.851  12.392  46.592  0.00  0.00    -0.001 A 
BRANCH  12  15
ATOM     15  OH  TYR A   1       7.807  11.933  48.668  0.00  0.00    -0.506 OA
ATOM     16  HH  TYR A   1       7.482  12.522  49.394  0.00  0.00    +0.292 HD
ENDBRANCH  12  15
ENDBRANCH   8   9
ENDBRANCH   5   8
ENDBRANCH   1   5
BRANCH   3  17
ATOM     17  CA  HIS A   2      14.489  10.411  47.601  0.00  0.00    +0.143 C 
BRANCH  17  18
ATOM     18  C   HIS A   2      15.703  10.127  48.493  0.00  0.00    +0.227 C 
ATOM     19  O   HIS A   2      16.638   9.442  48.077  0.00  0.00    -0.286 OA
ENDBRANCH  17  18
BRANCH  17  20
ATOM     20  CB  HIS A   2      14.515   9.575  46.350  0.00  0.00    +0.075 C 
BRANCH  20  21
ATOM     21  CG  HIS A   2      13.208   9.575  45.612  0.00  0.00    +0.082 A 
ATOM     22  CD2 HIS A   2      12.049   8.916  45.864  0.00  0.00    +0.115 A 
ATOM     23  NE2 HIS A   2      11.146   9.287  44.892  0.00  0.00    -0.221 NA
ATOM     24  CE1 HIS A   2      11.742  10.131  44.061  0.00  0.00    +0.199 A 
ATOM     25  ND1 HIS A   2      12.985  10.340  44.491  0.00  0.00    -0.227 NA
ENDBRANCH  20  21
ENDBRANCH  17  20
ENDBRANCH   3  17
TORSDOF 9
REMARK  Name = ../refined-set-2016/4llj/4llj_pocket.pdb
REMARK  100 active torsions:
REMARK  status: ('A' for Active; 'I' for Inactive)
REMARK    1  A    between atoms: _1  and  _3
REMARK    2  A    between atoms: _3  and  _4
REMARK    3  A    between atoms: _3  and  _6
REMARK    4  A    between atoms: _6  and  _7
REMARK    5  A    between atoms: _12  and  _13
REMARK    6  A    between atoms: _15  and  _17
REMARK    7  A    between atoms: _17  and  _18
REMARK    8  A    between atoms: _17  and  _20
REMARK    9  A    between atoms: _20  and  _21
REMARK   10  A    between atoms: _26  and  _28
REMARK   11  A    between atoms: _28  and  _29
REMARK   12  A    between atoms: _28  and  _31
REMARK   13  A    between atoms: _31  and  _32
REMARK   14  A    between atoms: _36  and  NI_250
REMARK   15  A    between atoms: _37  and  _39
REMARK   16  A    between atoms: _39  and  _40
REMARK   17  A    between atoms: _39  and  _42
REMARK   18  A    between atoms: _42  and  _43
REMARK   19  A    between atoms: _46  and  _48
REMARK   20  A    between atoms: _48  and  _49
REMARK   21  A    between atoms: _48  and  _51
REMARK   22  A    between atoms: _51  and  _52
REMARK   23  A    between atoms: _52  and  _54
REMARK   24  A    between atoms: _54  and  NI_250
REMARK   25  A    between atoms: _55  and  _57
REMARK   26  A    between atoms: _57  and  _58
REMARK   27  A    between atoms: _57  and  _60
REMARK   28  A    between atoms: _60  and  _61
REMARK   29  A    between atoms: _64  and  _66
REMARK   30  A    between atoms: _66  and  _67
REMARK   31  A    between atoms: _66  and  _69
REMARK   32  A    between atoms: _71  and  _73
REMARK   33  A    between atoms: _73  and  _74
REMARK   34  A    between atoms: _73  and  _76
REMARK   35  A    between atoms: _76  and  _77
REMARK   36  A    between atoms: _79  and  _81
REMARK   37  A    between atoms: _81  and  _82
REMARK   38  A    between atoms: _81  and  _84
REMARK   39  A    between atoms: _87  and  _89
REMARK   40  A    between atoms: _89  and  _90
REMARK   41  A    between atoms: _89  and  _92
REMARK   42  A    between atoms: _92  and  _93
REMARK   43  A    between atoms: _96  and  _98
REMARK   44  A    between atoms: _98  and  _99
REMARK   45  A    between atoms: _98  and  _101
REMARK   46  A    between atoms: _101  and  _102
REMARK   47  A    between atoms: _105  and  _107
REMARK   48  A    between atoms: _107  and  _108
REMARK   49  A    between atoms: _111  and  _113
REMARK   50  A    between atoms: _113  and  _114
REMARK   51  A    between atoms: _113  and  _116
REMARK   52  A    between atoms: _116  and  _117
REMARK   53  A    between atoms: _120  and  _122
REMARK   54  A    between atoms: _122  and  _123
REMARK   55  A    between atoms: _122  and  _125
REMARK   56  A    between atoms: _125  and  _126
REMARK   57  A    between atoms: _131  and  _132
REMARK   58  A    between atoms: _134  and  _136
REMARK   59  A    between atoms: _136  and  _137
REMARK   60  A    between atoms: _136  and  _139
REMARK   61  A    between atoms: _139  and  _140
REMARK   62  A    between atoms: _146  and  _148
REMARK   63  A    between atoms: _148  and  _149
REMARK   64  A    between atoms: _148  and  _151
REMARK   65  A    between atoms: _151  and  _152
REMARK   66  A    between atoms: _152  and  _153
REMARK   67  A    between atoms: _155  and  _157
REMARK   68  A    between atoms: _157  and  _158
REMARK   69  A    between atoms: _157  and  _160
REMARK   70  A    between atoms: _163  and  _165
REMARK   71  A    between atoms: _165  and  _166
REMARK   72  A    between atoms: _168  and  _170
REMARK   73  A    between atoms: _170  and  _171
REMARK   74  A    between atoms: _170  and  _173
REMARK   75  A    between atoms: _173  and  _174
REMARK   76  A    between atoms: _174  and  _175
REMARK   77  A    between atoms: _180  and  _182
REMARK   78  A    between atoms: _182  and  _183
REMARK   79  A    between atoms: _182  and  _185
REMARK   80  A    between atoms: _185  and  _186
REMARK   81  A    between atoms: _189  and  _191
REMARK   82  A    between atoms: _191  and  _192
REMARK   83  A    between atoms: _194  and  _196
REMARK   84  A    between atoms: _196  and  _197
REMARK   85  A    between atoms: _196  and  _199
REMARK   86  A    between atoms: _199  and  _200
REMARK   87  A    between atoms: _206  and  _208
REMARK   88  A    between atoms: _208  and  _209
REMARK   89  A    between atoms: _208  and  _211
REMARK   90  A    between atoms: _211  and  _212
REMARK   91  A    between atoms: _217  and  _218
REMARK   92  A    between atoms: _220  and  _222
REMARK   93  A    between atoms: _222  and  _223
REMARK   94  A    between atoms: _222  and  _225
REMARK   95  A    between atoms: _228  and  _230
REMARK   96  A    between atoms: _230  and  _231
REMARK   97  A    between atoms: _234  and  _236
REMARK   98  A    between atoms: _236  and  _237
REMARK   99  A    between atoms: _236  and  _239
REMARK  100  A    between atoms: _239  and  _240
REMARK                            x       y       z     vdW  Elec       q    Type
REMARK                         _______ _______ _______ _____ _____    ______ ____
ROOT
ATOM      1  CA  LEU A   2       2.948   9.400  49.350  0.00  0.00    +0.000 C 
ENDROOT
BRANCH   1   2
ATOM      2  C   LEU A   2       2.585  10.341  50.492  0.00  0.00    +0.000 C 
ATOM      3  N   CYS A   3       2.966  10.025  51.742  0.00  0.00    +0.000 N 
ATOM      4  H   CYS A   3       3.713   9.323  51.917  0.00  0.00    +0.000 HD
ATOM      5  O   LEU A   2       1.943  11.383  50.229  0.00  0.00    +0.000 OA
BRANCH   3   6
ATOM      6  CA  CYS A   3       2.273  10.724  52.876  0.00  0.00    +0.000 C 
BRANCH   6   7
ATOM      7  C   CYS A   3       2.627  12.204  52.997  0.00  0.00    +0.000 C 
ATOM      8  O   CYS A   3       2.045  12.920  53.798  0.00  0.00    +0.000 OA
ATOM      9  N   SER A   4       3.611  12.691  52.238  0.00  0.00    +0.000 N 
ATOM     10  H   SER A   4       4.251  12.064  51.710  0.00  0.00    +0.000 HD
BRANCH   9  11
ATOM     11  CA  SER A   4       3.752  14.163  52.181  0.00  0.00    +0.000 C 
BRANCH  11  12
ATOM     12  C   SER A   4       2.437  14.894  51.840  0.00  0.00    +0.000 C 
ATOM     13  O   SER A   4       2.218  16.033  52.283  0.00  0.00    +0.000 OA
ATOM     14  N   VAL A   5       1.552  14.239  51.094  0.00  0.00    +0.000 N 
ATOM     15  H   VAL A   5       1.772  13.283  50.749  0.00  0.00    +0.000 HD
BRANCH  14  16
ATOM     16  CA  VAL A   5       0.277  14.855  50.759  0.00  0.00    +0.000 C 
BRANCH  16  17
ATOM     17  CB  VAL A   5      -0.394  14.282  49.466  0.00  0.00    +0.000 C 
ATOM     18  CG2 VAL A   5      -1.031  12.899  49.743  0.00  0.00    +0.000 C 
ATOM     19  CG1 VAL A   5       0.656  14.231  48.298  0.00  0.00    +0.000 C 
ENDBRANCH  16  17
BRANCH  16  20
ATOM     20  C   VAL A   5      -0.690  14.846  51.900  0.00  0.00    +0.000 C 
ATOM     21  O   VAL A   5      -1.808  15.342  51.738  0.00  0.00    +0.000 OA
ENDBRANCH  16  20
ENDBRANCH  14  16
ENDBRANCH  11  12
BRANCH  11  22
ATOM     22  CB  SER A   4       4.879  14.563  51.193  0.00  0.00    +0.000 C 
BRANCH  22  23
ATOM     23  OG  SER A   4       4.347  14.515  49.872  0.00  0.00    +0.000 OA
ATOM     24  H   SER A   4       4.032  13.597  49.677  0.00  0.00    +0.000 HD
ENDBRANCH  22  23
ENDBRANCH  11  22
ENDBRANCH   9  11
ENDBRANCH   6   7
BRANCH   6  25
ATOM     25  CB  CYS A   3       2.479  10.048  54.215  0.00  0.00    +0.000 C 
ATOM     26  SG  CYS A   3       4.136  10.215  54.850  0.00  0.00    +0.000 S 
ENDBRANCH   6  25
ENDBRANCH   3   6
ENDBRANCH   1   2
BRANCH   1  28
ATOM     27  C   UNK A   1       4.789   7.934  49.937  0.00  0.00    +0.000 C 
ATOM     28  N   LEU A   2       3.471   8.110  49.791  0.00  0.00    +0.000 N 
ATOM     29  H   LEU A   2       2.817   7.326  49.992  0.00  0.00    +0.000 HD
ATOM     30  O   UNK A   1       5.575   8.872  49.783  0.00  0.00    +0.000 OA
BRANCH  27  31
ATOM     31  C   UNK A   1       5.283   6.557  50.367  0.00  0.00    +0.000 C 
BRANCH  31  32
ATOM     32  N   UNK A   1       4.351   5.960  51.351  0.00  0.00    +0.000 NA
ATOM     33  H   UNK A   1       3.852   5.081  51.108  0.00  0.00    +0.000 HD
ENDBRANCH  31  32
BRANCH  31  34
ATOM     34  C   UNK A   1       5.401   5.641  49.147  0.00  0.00    +0.000 C 
BRANCH  34  35
ATOM     35  C   UNK A   1       6.650   5.923  48.309  0.00  0.00    +0.000 C 
ATOM     36  O   UNK A   1       6.633   5.498  47.132  0.00  0.00    +0.000 OA
BRANCH  35  37
ATOM     37  O   UNK A   1       7.632   6.547  48.822  0.00  0.00    +0.000 OA
BRANCH  37  38
ATOM     38 NI   UNK A   1       9.678   6.543  48.277  0.00  0.00    +0.000 Ni
ATOM     39  O   UNK A   1       9.103   5.254  46.630  0.00  0.00    +0.000 OA
BRANCH  38  43
ATOM     40  C   UNK A   1      11.074   9.689  50.780  0.00  0.00    +0.000 A 
ATOM     41  N   UNK A   1       9.740  10.030  50.711  0.00  0.00    +0.000 NA
ATOM     42  C   UNK A   1       9.091   9.110  50.015  0.00  0.00    +0.000 A 
ATOM     43  N   UNK A   1       9.948   8.202  49.594  0.00  0.00    +0.000 N 
ATOM     44  C   UNK A   1      11.205   8.537  50.071  0.00  0.00    +0.000 A 
BRANCH  40  45
ATOM     45  C   UNK A   1      12.089  10.573  51.445  0.00  0.00    +0.000 C 
BRANCH  45  46
ATOM     46  C   UNK A   1      11.901  10.729  52.947  0.00  0.00    +0.000 C 
BRANCH  46  47
ATOM     47  N   UNK A   1      13.083  11.417  53.520  0.00  0.00    +0.000 NA
ATOM     48  H   UNK A   1      13.867  11.694  52.896  0.00  0.00    +0.000 HD
ENDBRANCH  46  47
BRANCH  46  49
ATOM     49  C   UNK A   1      11.779   9.338  53.591  0.00  0.00    +0.000 C 
ATOM     50  O   UNK A   1      10.699   8.948  54.028  0.00  0.00    +0.000 OA
ENDBRANCH  46  49
ENDBRANCH  45  46
ENDBRANCH  40  45
ENDBRANCH  38  43
ENDBRANCH  37  38
ENDBRANCH  35  37
ENDBRANCH  34  35
ENDBRANCH  31  34
ENDBRANCH  27  31
ENDBRANCH   1  28
BRANCH   1  51
ATOM     51  CB  LEU A   2       1.685   9.178  48.489  0.00  0.00    +0.000 C 
BRANCH  51  52
ATOM     52  CG  LEU A   2       1.797   8.264  47.277  0.00  0.00    +0.000 C 
ATOM     53  CD2 LEU A   2       0.517   8.219  46.450  0.00  0.00    +0.000 C 
ATOM     54  CD1 LEU A   2       3.047   8.741  46.439  0.00  0.00    +0.000 C 
ENDBRANCH  51  52
ENDBRANCH   1  51
TORSDOF 25
REMARK  Name = ../refined-set-2016/4llj/4llj_pocket.pdb
REMARK  100 active torsions:
REMARK  status: ('A' for Active; 'I' for Inactive)
REMARK    1  A    between atoms: _1  and  _3
REMARK    2  A    between atoms: _3  and  _4
REMARK    3  A    between atoms: _3  and  _6
REMARK    4  A    between atoms: _6  and  _7
REMARK    5  A    between atoms: _12  and  _13
REMARK    6  A    between atoms: _15  and  _17
REMARK    7  A    between atoms: _17  and  _18
REMARK    8  A    between atoms: _17  and  _20
REMARK    9  A    between atoms: _20  and  _21
REMARK   10  A    between atoms: _26  and  _28
REMARK   11  A    between atoms: _28  and  _29
REMARK   12  A    between atoms: _28  and  _31
REMARK   13  A    between atoms: _31  and  _32
REMARK   14  A    between atoms: _36  and  NI_250
REMARK   15  A    between atoms: _37  and  _39
REMARK   16  A    between atoms: _39  and  _40
REMARK   17  A    between atoms: _39  and  _42
REMARK   18  A    between atoms: _42  and  _43
REMARK   19  A    between atoms: _46  and  _48
REMARK   20  A    between atoms: _48  and  _49
REMARK   21  A    between atoms: _48  and  _51
REMARK   22  A    between atoms: _51  and  _52
REMARK   23  A    between atoms: _52  and  _54
REMARK   24  A    between atoms: _54  and  NI_250
REMARK   25  A    between atoms: _55  and  _57
REMARK   26  A    between atoms: _57  and  _58
REMARK   27  A    between atoms: _57  and  _60
REMARK   28  A    between atoms: _60  and  _61
REMARK   29  A    between atoms: _64  and  _66
REMARK   30  A    between atoms: _66  and  _67
REMARK   31  A    between atoms: _66  and  _69
REMARK   32  A    between atoms: _71  and  _73
REMARK   33  A    between atoms: _73  and  _74
REMARK   34  A    between atoms: _73  and  _76
REMARK   35  A    between atoms: _76  and  _77
REMARK   36  A    between atoms: _79  and  _81
REMARK   37  A    between atoms: _81  and  _82
REMARK   38  A    between atoms: _81  and  _84
REMARK   39  A    between atoms: _87  and  _89
REMARK   40  A    between atoms: _89  and  _90
REMARK   41  A    between atoms: _89  and  _92
REMARK   42  A    between atoms: _92  and  _93
REMARK   43  A    between atoms: _96  and  _98
REMARK   44  A    between atoms: _98  and  _99
REMARK   45  A    between atoms: _98  and  _101
REMARK   46  A    between atoms: _101  and  _102
REMARK   47  A    between atoms: _105  and  _107
REMARK   48  A    between atoms: _107  and  _108
REMARK   49  A    between atoms: _111  and  _113
REMARK   50  A    between atoms: _113  and  _114
REMARK   51  A    between atoms: _113  and  _116
REMARK   52  A    between atoms: _116  and  _117
REMARK   53  A    between atoms: _120  and  _122
REMARK   54  A    between atoms: _122  and  _123
REMARK   55  A    between atoms: _122  and  _125
REMARK   56  A    between atoms: _125  and  _126
REMARK   57  A    between atoms: _131  and  _132
REMARK   58  A    between atoms: _134  and  _136
REMARK   59  A    between atoms: _136  and  _137
REMARK   60  A    between atoms: _136  and  _139
REMARK   61  A    between atoms: _139  and  _140
REMARK   62  A    between atoms: _146  and  _148
REMARK   63  A    between atoms: _148  and  _149
REMARK   64  A    between atoms: _148  and  _151
REMARK   65  A    between atoms: _151  and  _152
REMARK   66  A    between atoms: _152  and  _153
REMARK   67  A    between atoms: _155  and  _157
REMARK   68  A    between atoms: _157  and  _158
REMARK   69  A    between atoms: _157  and  _160
REMARK   70  A    between atoms: _163  and  _165
REMARK   71  A    between atoms: _165  and  _166
REMARK   72  A    between atoms: _168  and  _170
REMARK   73  A    between atoms: _170  and  _171
REMARK   74  A    between atoms: _170  and  _173
REMARK   75  A    between atoms: _173  and  _174
REMARK   76  A    between atoms: _174  and  _175
REMARK   77  A    between atoms: _180  and  _182
REMARK   78  A    between atoms: _182  and  _183
REMARK   79  A    between atoms: _182  and  _185
REMARK   80  A    between atoms: _185  and  _186
REMARK   81  A    between atoms: _189  and  _191
REMARK   82  A    between atoms: _191  and  _192
REMARK   83  A    between atoms: _194  and  _196
REMARK   84  A    between atoms: _196  and  _197
REMARK   85  A    between atoms: _196  and  _199
REMARK   86  A    between atoms: _199  and  _200
REMARK   87  A    between atoms: _206  and  _208
REMARK   88  A    between atoms: _208  and  _209
REMARK   89  A    between atoms: _208  and  _211
REMARK   90  A    between atoms: _211  and  _212
REMARK   91  A    between atoms: _217  and  _218
REMARK   92  A    between atoms: _220  and  _222
REMARK   93  A    between atoms: _222  and  _223
REMARK   94  A    between atoms: _222  and  _225
REMARK   95  A    between atoms: _228  and  _230
REMARK   96  A    between atoms: _230  and  _231
REMARK   97  A    between atoms: _234  and  _236
REMARK   98  A    between atoms: _236  and  _237
REMARK   99  A    between atoms: _236  and  _239
REMARK  100  A    between atoms: _239  and  _240
REMARK                            x       y       z     vdW  Elec       q    Type
REMARK                         _______ _______ _______ _____ _____    ______ ____
ROOT
ATOM      1  CA  LEU A   1       3.414   3.276  41.535  0.00  0.00    +0.133 C 
ENDROOT
BRANCH   1   2
ATOM      2  N   LEU A   1       4.808   2.752  41.750  0.00  0.00    -0.239 NA
ATOM      3  H   LEU A   1       5.623   3.397  41.718  0.00  0.00    +0.142 HD
ENDBRANCH   1   2
BRANCH   1   4
ATOM      4  C   LEU A   1       2.816   2.674  40.320  0.00  0.00    +0.224 C 
ATOM      5  O   LEU A   1       1.601   2.651  40.194  0.00  0.00    -0.287 OA
ENDBRANCH   1   4
BRANCH   1   6
ATOM      6  CB  LEU A   1       3.406   4.802  41.415  0.00  0.00    +0.025 C 
BRANCH   6   7
ATOM      7  CG  LEU A   1       3.504   5.603  42.710  0.00  0.00    +0.002 C 
ATOM      8  CD2 LEU A   1       2.227   5.395  43.600  0.00  0.00    +0.000 C 
ATOM      9  CD1 LEU A   1       3.670   7.105  42.345  0.00  0.00    +0.000 C 
ENDBRANCH   6   7
ENDBRANCH   1   6
TORSDOF 4
REMARK  Name = ../refined-set-2016/4llj/4llj_pocket.pdb
REMARK  100 active torsions:
REMARK  status: ('A' for Active; 'I' for Inactive)
REMARK    1  A    between atoms: _1  and  _3
REMARK    2  A    between atoms: _3  and  _4
REMARK    3  A    between atoms: _3  and  _6
REMARK    4  A    between atoms: _6  and  _7
REMARK    5  A    between atoms: _12  and  _13
REMARK    6  A    between atoms: _15  and  _17
REMARK    7  A    between atoms: _17  and  _18
REMARK    8  A    between atoms: _17  and  _20
REMARK    9  A    between atoms: _20  and  _21
REMARK   10  A    between atoms: _26  and  _28
REMARK   11  A    between atoms: _28  and  _29
REMARK   12  A    between atoms: _28  and  _31
REMARK   13  A    between atoms: _31  and  _32
REMARK   14  A    between atoms: _36  and  NI_250
REMARK   15  A    between atoms: _37  and  _39
REMARK   16  A    between atoms: _39  and  _40
REMARK   17  A    between atoms: _39  and  _42
REMARK   18  A    between atoms: _42  and  _43
REMARK   19  A    between atoms: _46  and  _48
REMARK   20  A    between atoms: _48  and  _49
REMARK   21  A    between atoms: _48  and  _51
REMARK   22  A    between atoms: _51  and  _52
REMARK   23  A    between atoms: _52  and  _54
REMARK   24  A    between atoms: _54  and  NI_250
REMARK   25  A    between atoms: _55  and  _57
REMARK   26  A    between atoms: _57  and  _58
REMARK   27  A    between atoms: _57  and  _60
REMARK   28  A    between atoms: _60  and  _61
REMARK   29  A    between atoms: _64  and  _66
REMARK   30  A    between atoms: _66  and  _67
REMARK   31  A    between atoms: _66  and  _69
REMARK   32  A    between atoms: _71  and  _73
REMARK   33  A    between atoms: _73  and  _74
REMARK   34  A    between atoms: _73  and  _76
REMARK   35  A    between atoms: _76  and  _77
REMARK   36  A    between atoms: _79  and  _81
REMARK   37  A    between atoms: _81  and  _82
REMARK   38  A    between atoms: _81  and  _84
REMARK   39  A    between atoms: _87  and  _89
REMARK   40  A    between atoms: _89  and  _90
REMARK   41  A    between atoms: _89  and  _92
REMARK   42  A    between atoms: _92  and  _93
REMARK   43  A    between atoms: _96  and  _98
REMARK   44  A    between atoms: _98  and  _99
REMARK   45  A    between atoms: _98  and  _101
REMARK   46  A    between atoms: _101  and  _102
REMARK   47  A    between atoms: _105  and  _107
REMARK   48  A    between atoms: _107  and  _108
REMARK   49  A    between atoms: _111  and  _113
REMARK   50  A    between atoms: _113  and  _114
REMARK   51  A    between atoms: _113  and  _116
REMARK   52  A    between atoms: _116  and  _117
REMARK   53  A    between atoms: _120  and  _122
REMARK   54  A    between atoms: _122  and  _123
REMARK   55  A    between atoms: _122  and  _125
REMARK   56  A    between atoms: _125  and  _126
REMARK   57  A    between atoms: _131  and  _132
REMARK   58  A    between atoms: _134  and  _136
REMARK   59  A    between atoms: _136  and  _137
REMARK   60  A    between atoms: _136  and  _139
REMARK   61  A    between atoms: _139  and  _140
REMARK   62  A    between atoms: _146  and  _148
REMARK   63  A    between atoms: _148  and  _149
REMARK   64  A    between atoms: _148  and  _151
REMARK   65  A    between atoms: _151  and  _152
REMARK   66  A    between atoms: _152  and  _153
REMARK   67  A    between atoms: _155  and  _157
REMARK   68  A    between atoms: _157  and  _158
REMARK   69  A    between atoms: _157  and  _160
REMARK   70  A    between atoms: _163  and  _165
REMARK   71  A    between atoms: _165  and  _166
REMARK   72  A    between atoms: _168  and  _170
REMARK   73  A    between atoms: _170  and  _171
REMARK   74  A    between atoms: _170  and  _173
REMARK   75  A    between atoms: _173  and  _174
REMARK   76  A    between atoms: _174  and  _175
REMARK   77  A    between atoms: _180  and  _182
REMARK   78  A    between atoms: _182  and  _183
REMARK   79  A    between atoms: _182  and  _185
REMARK   80  A    between atoms: _185  and  _186
REMARK   81  A    between atoms: _189  and  _191
REMARK   82  A    between atoms: _191  and  _192
REMARK   83  A    between atoms: _194  and  _196
REMARK   84  A    between atoms: _196  and  _197
REMARK   85  A    between atoms: _196  and  _199
REMARK   86  A    between atoms: _199  and  _200
REMARK   87  A    between atoms: _206  and  _208
REMARK   88  A    between atoms: _208  and  _209
REMARK   89  A    between atoms: _208  and  _211
REMARK   90  A    between atoms: _211  and  _212
REMARK   91  A    between atoms: _217  and  _218
REMARK   92  A    between atoms: _220  and  _222
REMARK   93  A    between atoms: _222  and  _223
REMARK   94  A    between atoms: _222  and  _225
REMARK   95  A    between atoms: _228  and  _230
REMARK   96  A    between atoms: _230  and  _231
REMARK   97  A    between atoms: _234  and  _236
REMARK   98  A    between atoms: _236  and  _237
REMARK   99  A    between atoms: _236  and  _239
REMARK  100  A    between atoms: _239  and  _240
REMARK                            x       y       z     vdW  Elec       q    Type
REMARK                         _______ _______ _______ _____ _____    ______ ____
ROOT
ATOM      1  CA  THR A   1       3.182  19.451  51.744  0.00  0.00    +0.160 C 
ENDROOT
BRANCH   1   2
ATOM      2  N   THR A   1       3.452  20.035  53.053  0.00  0.00    -0.237 NA
ATOM      3  H   THR A   1       2.657  20.263  53.683  0.00  0.00    +0.142 HD
ENDBRANCH   1   2
BRANCH   1   4
ATOM      4  CB  THR A   1       1.658  19.386  51.573  0.00  0.00    +0.134 C 
ATOM      5  CG2 THR A   1       1.259  18.857  50.172  0.00  0.00    +0.034 C 
BRANCH   4   6
ATOM      6  OG1 THR A   1       1.146  18.535  52.606  0.00  0.00    -0.383 OA
ATOM      7  HG1 THR A   1       1.544  17.633  52.516  0.00  0.00    +0.210 HD
ENDBRANCH   4   6
ENDBRANCH   1   4
BRANCH   1   8
ATOM      8  C   THR A   1       3.808  20.276  50.604  0.00  0.00    +0.227 C 
ATOM      9  O   THR A   1       4.354  19.734  49.642  0.00  0.00    -0.287 OA
ENDBRANCH   1   8
TORSDOF 4
REMARK  Name = ../refined-set-2016/4llj/4llj_pocket.pdb
REMARK  100 active torsions:
REMARK  status: ('A' for Active; 'I' for Inactive)
REMARK    1  A    between atoms: _1  and  _3
REMARK    2  A    between atoms: _3  and  _4
REMARK    3  A    between atoms: _3  and  _6
REMARK    4  A    between atoms: _6  and  _7
REMARK    5  A    between atoms: _12  and  _13
REMARK    6  A    between atoms: _15  and  _17
REMARK    7  A    between atoms: _17  and  _18
REMARK    8  A    between atoms: _17  and  _20
REMARK    9  A    between atoms: _20  and  _21
REMARK   10  A    between atoms: _26  and  _28
REMARK   11  A    between atoms: _28  and  _29
REMARK   12  A    between atoms: _28  and  _31
REMARK   13  A    between atoms: _31  and  _32
REMARK   14  A    between atoms: _36  and  NI_250
REMARK   15  A    between atoms: _37  and  _39
REMARK   16  A    between atoms: _39  and  _40
REMARK   17  A    between atoms: _39  and  _42
REMARK   18  A    between atoms: _42  and  _43
REMARK   19  A    between atoms: _46  and  _48
REMARK   20  A    between atoms: _48  and  _49
REMARK   21  A    between atoms: _48  and  _51
REMARK   22  A    between atoms: _51  and  _52
REMARK   23  A    between atoms: _52  and  _54
REMARK   24  A    between atoms: _54  and  NI_250
REMARK   25  A    between atoms: _55  and  _57
REMARK   26  A    between atoms: _57  and  _58
REMARK   27  A    between atoms: _57  and  _60
REMARK   28  A    between atoms: _60  and  _61
REMARK   29  A    between atoms: _64  and  _66
REMARK   30  A    between atoms: _66  and  _67
REMARK   31  A    between atoms: _66  and  _69
REMARK   32  A    between atoms: _71  and  _73
REMARK   33  A    between atoms: _73  and  _74
REMARK   34  A    between atoms: _73  and  _76
REMARK   35  A    between atoms: _76  and  _77
REMARK   36  A    between atoms: _79  and  _81
REMARK   37  A    between atoms: _81  and  _82
REMARK   38  A    between atoms: _81  and  _84
REMARK   39  A    between atoms: _87  and  _89
REMARK   40  A    between atoms: _89  and  _90
REMARK   41  A    between atoms: _89  and  _92
REMARK   42  A    between atoms: _92  and  _93
REMARK   43  A    between atoms: _96  and  _98
REMARK   44  A    between atoms: _98  and  _99
REMARK   45  A    between atoms: _98  and  _101
REMARK   46  A    between atoms: _101  and  _102
REMARK   47  A    between atoms: _105  and  _107
REMARK   48  A    between atoms: _107  and  _108
REMARK   49  A    between atoms: _111  and  _113
REMARK   50  A    between atoms: _113  and  _114
REMARK   51  A    between atoms: _113  and  _116
REMARK   52  A    between atoms: _116  and  _117
REMARK   53  A    between atoms: _120  and  _122
REMARK   54  A    between atoms: _122  and  _123
REMARK   55  A    between atoms: _122  and  _125
REMARK   56  A    between atoms: _125  and  _126
REMARK   57  A    between atoms: _131  and  _132
REMARK   58  A    between atoms: _134  and  _136
REMARK   59  A    between atoms: _136  and  _137
REMARK   60  A    between atoms: _136  and  _139
REMARK   61  A    between atoms: _139  and  _140
REMARK   62  A    between atoms: _146  and  _148
REMARK   63  A    between atoms: _148  and  _149
REMARK   64  A    between atoms: _148  and  _151
REMARK   65  A    between atoms: _151  and  _152
REMARK   66  A    between atoms: _152  and  _153
REMARK   67  A    between atoms: _155  and  _157
REMARK   68  A    between atoms: _157  and  _158
REMARK   69  A    between atoms: _157  and  _160
REMARK   70  A    between atoms: _163  and  _165
REMARK   71  A    between atoms: _165  and  _166
REMARK   72  A    between atoms: _168  and  _170
REMARK   73  A    between atoms: _170  and  _171
REMARK   74  A    between atoms: _170  and  _173
REMARK   75  A    between atoms: _173  and  _174
REMARK   76  A    between atoms: _174  and  _175
REMARK   77  A    between atoms: _180  and  _182
REMARK   78  A    between atoms: _182  and  _183
REMARK   79  A    between atoms: _182  and  _185
REMARK   80  A    between atoms: _185  and  _186
REMARK   81  A    between atoms: _189  and  _191
REMARK   82  A    between atoms: _191  and  _192
REMARK   83  A    between atoms: _194  and  _196
REMARK   84  A    between atoms: _196  and  _197
REMARK   85  A    between atoms: _196  and  _199
REMARK   86  A    between atoms: _199  and  _200
REMARK   87  A    between atoms: _206  and  _208
REMARK   88  A    between atoms: _208  and  _209
REMARK   89  A    between atoms: _208  and  _211
REMARK   90  A    between atoms: _211  and  _212
REMARK   91  A    between atoms: _217  and  _218
REMARK   92  A    between atoms: _220  and  _222
REMARK   93  A    between atoms: _222  and  _223
REMARK   94  A    between atoms: _222  and  _225
REMARK   95  A    between atoms: _228  and  _230
REMARK   96  A    between atoms: _230  and  _231
REMARK   97  A    between atoms: _234  and  _236
REMARK   98  A    between atoms: _236  and  _237
REMARK   99  A    between atoms: _236  and  _239
REMARK  100  A    between atoms: _239  and  _240
REMARK                            x       y       z     vdW  Elec       q    Type
REMARK                         _______ _______ _______ _____ _____    ______ ____
ROOT
ATOM      1  C   THR A   1       7.922  18.720  48.536  0.00  0.00    +0.241 C 
ATOM      2  N   ALA A   2       6.856  19.304  48.015  0.00  0.00    -0.298 N 
ATOM      3  H   ALA A   2       6.156  19.754  48.638  0.00  0.00    +0.150 HD
ATOM      4  O   THR A   1       8.748  18.173  47.826  0.00  0.00    -0.274 OA
ENDROOT
BRANCH   2   5
ATOM      5  CA  ALA A   2       6.660  19.319  46.582  0.00  0.00    +0.137 C 
ATOM      6  CB  ALA A   2       5.270  19.920  46.214  0.00  0.00    +0.030 C 
BRANCH   5   7
ATOM      7  C   ALA A   2       7.793  20.046  45.873  0.00  0.00    +0.227 C 
ATOM      8  O   ALA A   2       8.199  19.632  44.786  0.00  0.00    -0.286 OA
ENDBRANCH   5   7
ENDBRANCH   2   5
BRANCH   1   9
ATOM      9  CA  THR A   1       8.070  18.769  50.050  0.00  0.00    +0.172 C 
BRANCH   9  10
ATOM     10  N   THR A   1       7.659  20.067  50.548  0.00  0.00    -0.236 NA
ATOM     11  H   THR A   1       6.840  20.135  51.185  0.00  0.00    +0.142 HD
ENDBRANCH   9  10
BRANCH   9  12
ATOM     12  CB  THR A   1       7.269  17.658  50.750  0.00  0.00    +0.135 C 
ATOM     13  CG2 THR A   1       7.703  16.310  50.243  0.00  0.00    +0.034 C 
BRANCH  12  14
ATOM     14  OG1 THR A   1       7.560  17.740  52.162  0.00  0.00    -0.383 OA
ATOM     15  HG1 THR A   1       7.290  18.630  52.502  0.00  0.00    +0.210 HD
ENDBRANCH  12  14
ENDBRANCH   9  12
ENDBRANCH   1   9
TORSDOF 6
REMARK  Name = ../refined-set-2016/4llj/4llj_pocket.pdb
REMARK  100 active torsions:
REMARK  status: ('A' for Active; 'I' for Inactive)
REMARK    1  A    between atoms: _1  and  _3
REMARK    2  A    between atoms: _3  and  _4
REMARK    3  A    between atoms: _3  and  _6
REMARK    4  A    between atoms: _6  and  _7
REMARK    5  A    between atoms: _12  and  _13
REMARK    6  A    between atoms: _15  and  _17
REMARK    7  A    between atoms: _17  and  _18
REMARK    8  A    between atoms: _17  and  _20
REMARK    9  A    between atoms: _20  and  _21
REMARK   10  A    between atoms: _26  and  _28
REMARK   11  A    between atoms: _28  and  _29
REMARK   12  A    between atoms: _28  and  _31
REMARK   13  A    between atoms: _31  and  _32
REMARK   14  A    between atoms: _36  and  NI_250
REMARK   15  A    between atoms: _37  and  _39
REMARK   16  A    between atoms: _39  and  _40
REMARK   17  A    between atoms: _39  and  _42
REMARK   18  A    between atoms: _42  and  _43
REMARK   19  A    between atoms: _46  and  _48
REMARK   20  A    between atoms: _48  and  _49
REMARK   21  A    between atoms: _48  and  _51
REMARK   22  A    between atoms: _51  and  _52
REMARK   23  A    between atoms: _52  and  _54
REMARK   24  A    between atoms: _54  and  NI_250
REMARK   25  A    between atoms: _55  and  _57
REMARK   26  A    between atoms: _57  and  _58
REMARK   27  A    between atoms: _57  and  _60
REMARK   28  A    between atoms: _60  and  _61
REMARK   29  A    between atoms: _64  and  _66
REMARK   30  A    between atoms: _66  and  _67
REMARK   31  A    between atoms: _66  and  _69
REMARK   32  A    between atoms: _71  and  _73
REMARK   33  A    between atoms: _73  and  _74
REMARK   34  A    between atoms: _73  and  _76
REMARK   35  A    between atoms: _76  and  _77
REMARK   36  A    between atoms: _79  and  _81
REMARK   37  A    between atoms: _81  and  _82
REMARK   38  A    between atoms: _81  and  _84
REMARK   39  A    between atoms: _87  and  _89
REMARK   40  A    between atoms: _89  and  _90
REMARK   41  A    between atoms: _89  and  _92
REMARK   42  A    between atoms: _92  and  _93
REMARK   43  A    between atoms: _96  and  _98
REMARK   44  A    between atoms: _98  and  _99
REMARK   45  A    between atoms: _98  and  _101
REMARK   46  A    between atoms: _101  and  _102
REMARK   47  A    between atoms: _105  and  _107
REMARK   48  A    between atoms: _107  and  _108
REMARK   49  A    between atoms: _111  and  _113
REMARK   50  A    between atoms: _113  and  _114
REMARK   51  A    between atoms: _113  and  _116
REMARK   52  A    between atoms: _116  and  _117
REMARK   53  A    between atoms: _120  and  _122
REMARK   54  A    between atoms: _122  and  _123
REMARK   55  A    between atoms: _122  and  _125
REMARK   56  A    between atoms: _125  and  _126
REMARK   57  A    between atoms: _131  and  _132
REMARK   58  A    between atoms: _134  and  _136
REMARK   59  A    between atoms: _136  and  _137
REMARK   60  A    between atoms: _136  and  _139
REMARK   61  A    between atoms: _139  and  _140
REMARK   62  A    between atoms: _146  and  _148
REMARK   63  A    between atoms: _148  and  _149
REMARK   64  A    between atoms: _148  and  _151
REMARK   65  A    between atoms: _151  and  _152
REMARK   66  A    between atoms: _152  and  _153
REMARK   67  A    between atoms: _155  and  _157
REMARK   68  A    between atoms: _157  and  _158
REMARK   69  A    between atoms: _157  and  _160
REMARK   70  A    between atoms: _163  and  _165
REMARK   71  A    between atoms: _165  and  _166
REMARK   72  A    between atoms: _168  and  _170
REMARK   73  A    between atoms: _170  and  _171
REMARK   74  A    between atoms: _170  and  _173
REMARK   75  A    between atoms: _173  and  _174
REMARK   76  A    between atoms: _174  and  _175
REMARK   77  A    between atoms: _180  and  _182
REMARK   78  A    between atoms: _182  and  _183
REMARK   79  A    between atoms: _182  and  _185
REMARK   80  A    between atoms: _185  and  _186
REMARK   81  A    between atoms: _189  and  _191
REMARK   82  A    between atoms: _191  and  _192
REMARK   83  A    between atoms: _194  and  _196
REMARK   84  A    between atoms: _196  and  _197
REMARK   85  A    between atoms: _196  and  _199
REMARK   86  A    between atoms: _199  and  _200
REMARK   87  A    between atoms: _206  and  _208
REMARK   88  A    between atoms: _208  and  _209
REMARK   89  A    between atoms: _208  and  _211
REMARK   90  A    between atoms: _211  and  _212
REMARK   91  A    between atoms: _217  and  _218
REMARK   92  A    between atoms: _220  and  _222
REMARK   93  A    between atoms: _222  and  _223
REMARK   94  A    between atoms: _222  and  _225
REMARK   95  A    between atoms: _228  and  _230
REMARK   96  A    between atoms: _230  and  _231
REMARK   97  A    between atoms: _234  and  _236
REMARK   98  A    between atoms: _236  and  _237
REMARK   99  A    between atoms: _236  and  _239
REMARK  100  A    between atoms: _239  and  _240
REMARK                            x       y       z     vdW  Elec       q    Type
REMARK                         _______ _______ _______ _____ _____    ______ ____
ROOT
ATOM      1  CA  TYR A   2      10.204  18.856  41.559  0.00  0.00    +0.141 C 
ENDROOT
BRANCH   1   3
ATOM      2  C   ILE A   1      10.456  17.007  43.089  0.00  0.00    +0.238 C 
ATOM      3  N   TYR A   2      10.010  18.238  42.854  0.00  0.00    -0.298 N 
ATOM      4  H   TYR A   2       9.518  18.761  43.606  0.00  0.00    +0.150 HD
ATOM      5  O   ILE A   1      11.073  16.351  42.240  0.00  0.00    -0.274 OA
BRANCH   2   6
ATOM      6  CA  ILE A   1      10.112  16.434  44.495  0.00  0.00    +0.145 C 
BRANCH   6   7
ATOM      7  N   ILE A   1      10.478  17.396  45.546  0.00  0.00    -0.238 NA
ATOM      8  H   ILE A   1       9.774  17.671  46.261  0.00  0.00    +0.142 HD
ENDBRANCH   6   7
BRANCH   6   9
ATOM      9  CB  ILE A   1       8.562  16.120  44.610  0.00  0.00    +0.025 C 
ATOM     10  CG2 ILE A   1       8.084  15.339  43.461  0.00  0.00    +0.002 C 
BRANCH   9  11
ATOM     11  CG1 ILE A   1       8.256  15.412  45.960  0.00  0.00    +0.002 C 
ATOM     12  CD1 ILE A   1       6.713  15.339  46.392  0.00  0.00    +0.000 C 
ENDBRANCH   9  11
ENDBRANCH   6   9
ENDBRANCH   2   6
ENDBRANCH   1   3
BRANCH   1  13
ATOM     13  C   TYR A   2      11.658  19.184  41.281  0.00  0.00    +0.227 C 
ATOM     14  O   TYR A   2      12.042  19.121  40.153  0.00  0.00    -0.286 OA
ENDBRANCH   1  13
BRANCH   1  15
ATOM     15  CB  TYR A   2       9.286  20.063  41.362  0.00  0.00    +0.054 C 
BRANCH  15  16
ATOM     16  CG  TYR A   2       7.921  19.654  40.897  0.00  0.00    -0.020 A 
ATOM     17  CD2 TYR A   2       6.915  19.366  41.819  0.00  0.00    -0.001 A 
ATOM     18  CE2 TYR A   2       5.637  18.997  41.376  0.00  0.00    +0.036 A 
ATOM     19  CZ  TYR A   2       5.391  18.857  40.037  0.00  0.00    +0.134 A 
ATOM     20  CE1 TYR A   2       6.371  19.093  39.105  0.00  0.00    +0.036 A 
ATOM     21  CD1 TYR A   2       7.652  19.478  39.551  0.00  0.00    -0.001 A 
BRANCH  19  22
ATOM     22  OH  TYR A   2       4.136  18.472  39.606  0.00  0.00    -0.506 OA
ATOM     23  HH  TYR A   2       3.545  18.341  40.389  0.00  0.00    +0.292 HD
ENDBRANCH  19  22
ENDBRANCH  15  16
ENDBRANCH   1  15
TORSDOF 9
REMARK  Name = ../refined-set-2016/4llj/4llj_pocket.pdb
REMARK  100 active torsions:
REMARK  status: ('A' for Active; 'I' for Inactive)
REMARK    1  A    between atoms: _1  and  _3
REMARK    2  A    between atoms: _3  and  _4
REMARK    3  A    between atoms: _3  and  _6
REMARK    4  A    between atoms: _6  and  _7
REMARK    5  A    between atoms: _12  and  _13
REMARK    6  A    between atoms: _15  and  _17
REMARK    7  A    between atoms: _17  and  _18
REMARK    8  A    between atoms: _17  and  _20
REMARK    9  A    between atoms: _20  and  _21
REMARK   10  A    between atoms: _26  and  _28
REMARK   11  A    between atoms: _28  and  _29
REMARK   12  A    between atoms: _28  and  _31
REMARK   13  A    between atoms: _31  and  _32
REMARK   14  A    between atoms: _36  and  NI_250
REMARK   15  A    between atoms: _37  and  _39
REMARK   16  A    between atoms: _39  and  _40
REMARK   17  A    between atoms: _39  and  _42
REMARK   18  A    between atoms: _42  and  _43
REMARK   19  A    between atoms: _46  and  _48
REMARK   20  A    between atoms: _48  and  _49
REMARK   21  A    between atoms: _48  and  _51
REMARK   22  A    between atoms: _51  and  _52
REMARK   23  A    between atoms: _52  and  _54
REMARK   24  A    between atoms: _54  and  NI_250
REMARK   25  A    between atoms: _55  and  _57
REMARK   26  A    between atoms: _57  and  _58
REMARK   27  A    between atoms: _57  and  _60
REMARK   28  A    between atoms: _60  and  _61
REMARK   29  A    between atoms: _64  and  _66
REMARK   30  A    between atoms: _66  and  _67
REMARK   31  A    between atoms: _66  and  _69
REMARK   32  A    between atoms: _71  and  _73
REMARK   33  A    between atoms: _73  and  _74
REMARK   34  A    between atoms: _73  and  _76
REMARK   35  A    between atoms: _76  and  _77
REMARK   36  A    between atoms: _79  and  _81
REMARK   37  A    between atoms: _81  and  _82
REMARK   38  A    between atoms: _81  and  _84
REMARK   39  A    between atoms: _87  and  _89
REMARK   40  A    between atoms: _89  and  _90
REMARK   41  A    between atoms: _89  and  _92
REMARK   42  A    between atoms: _92  and  _93
REMARK   43  A    between atoms: _96  and  _98
REMARK   44  A    between atoms: _98  and  _99
REMARK   45  A    between atoms: _98  and  _101
REMARK   46  A    between atoms: _101  and  _102
REMARK   47  A    between atoms: _105  and  _107
REMARK   48  A    between atoms: _107  and  _108
REMARK   49  A    between atoms: _111  and  _113
REMARK   50  A    between atoms: _113  and  _114
REMARK   51  A    between atoms: _113  and  _116
REMARK   52  A    between atoms: _116  and  _117
REMARK   53  A    between atoms: _120  and  _122
REMARK   54  A    between atoms: _122  and  _123
REMARK   55  A    between atoms: _122  and  _125
REMARK   56  A    between atoms: _125  and  _126
REMARK   57  A    between atoms: _131  and  _132
REMARK   58  A    between atoms: _134  and  _136
REMARK   59  A    between atoms: _136  and  _137
REMARK   60  A    between atoms: _136  and  _139
REMARK   61  A    between atoms: _139  and  _140
REMARK   62  A    between atoms: _146  and  _148
REMARK   63  A    between atoms: _148  and  _149
REMARK   64  A    between atoms: _148  and  _151
REMARK   65  A    between atoms: _151  and  _152
REMARK   66  A    between atoms: _152  and  _153
REMARK   67  A    between atoms: _155  and  _157
REMARK   68  A    between atoms: _157  and  _158
REMARK   69  A    between atoms: _157  and  _160
REMARK   70  A    between atoms: _163  and  _165
REMARK   71  A    between atoms: _165  and  _166
REMARK   72  A    between atoms: _168  and  _170
REMARK   73  A    between atoms: _170  and  _171
REMARK   74  A    between atoms: _170  and  _173
REMARK   75  A    between atoms: _173  and  _174
REMARK   76  A    between atoms: _174  and  _175
REMARK   77  A    between atoms: _180  and  _182
REMARK   78  A    between atoms: _182  and  _183
REMARK   79  A    between atoms: _182  and  _185
REMARK   80  A    between atoms: _185  and  _186
REMARK   81  A    between atoms: _189  and  _191
REMARK   82  A    between atoms: _191  and  _192
REMARK   83  A    between atoms: _194  and  _196
REMARK   84  A    between atoms: _196  and  _197
REMARK   85  A    between atoms: _196  and  _199
REMARK   86  A    between atoms: _199  and  _200
REMARK   87  A    between atoms: _206  and  _208
REMARK   88  A    between atoms: _208  and  _209
REMARK   89  A    between atoms: _208  and  _211
REMARK   90  A    between atoms: _211  and  _212
REMARK   91  A    between atoms: _217  and  _218
REMARK   92  A    between atoms: _220  and  _222
REMARK   93  A    between atoms: _222  and  _223
REMARK   94  A    between atoms: _222  and  _225
REMARK   95  A    between atoms: _228  and  _230
REMARK   96  A    between atoms: _230  and  _231
REMARK   97  A    between atoms: _234  and  _236
REMARK   98  A    between atoms: _236  and  _237
REMARK   99  A    between atoms: _236  and  _239
REMARK  100  A    between atoms: _239  and  _240
REMARK                            x       y       z     vdW  Elec       q    Type
REMARK                         _______ _______ _______ _____ _____    ______ ____
ROOT
ATOM      1  CB  PHE A   1      10.670  16.268  38.452  0.00  0.00    +0.051 C 
ENDROOT
BRANCH   1   2
ATOM      2  CG  PHE A   1       9.747  15.292  39.179  0.00  0.00    -0.020 A 
ATOM      3  CD2 PHE A   1       8.508  15.737  39.644  0.00  0.00    -0.004 A 
ATOM      4  CE2 PHE A   1       7.605  14.862  40.296  0.00  0.00    -0.000 A 
ATOM      5  CZ  PHE A   1       7.970  13.511  40.462  0.00  0.00    -0.000 A 
ATOM      6  CE1 PHE A   1       9.201  13.082  40.004  0.00  0.00    -0.000 A 
ATOM      7  CD1 PHE A   1      10.069  13.972  39.339  0.00  0.00    -0.004 A 
ENDBRANCH   1   2
BRANCH   1   8
ATOM      8  CA  PHE A   1      12.143  15.865  38.407  0.00  0.00    +0.137 C 
BRANCH   8   9
ATOM      9  N   PHE A   1      12.743  16.016  39.705  0.00  0.00    -0.239 NA
ATOM     10  H   PHE A   1      12.145  16.248  40.523  0.00  0.00    +0.142 HD
ENDBRANCH   8   9
BRANCH   8  11
ATOM     11  C   PHE A   1      12.850  16.784  37.384  0.00  0.00    +0.224 C 
ATOM     12  O   PHE A   1      13.129  16.357  36.279  0.00  0.00    -0.287 OA
ENDBRANCH   8  11
ENDBRANCH   1   8
TORSDOF 4
REMARK  Name = ../refined-set-2016/4llj/4llj_pocket.pdb
REMARK  100 active torsions:
REMARK  status: ('A' for Active; 'I' for Inactive)
REMARK    1  A    between atoms: _1  and  _3
REMARK    2  A    between atoms: _3  and  _4
REMARK    3  A    between atoms: _3  and  _6
REMARK    4  A    between atoms: _6  and  _7
REMARK    5  A    between atoms: _12  and  _13
REMARK    6  A    between atoms: _15  and  _17
REMARK    7  A    between atoms: _17  and  _18
REMARK    8  A    between atoms: _17  and  _20
REMARK    9  A    between atoms: _20  and  _21
REMARK   10  A    between atoms: _26  and  _28
REMARK   11  A    between atoms: _28  and  _29
REMARK   12  A    between atoms: _28  and  _31
REMARK   13  A    between atoms: _31  and  _32
REMARK   14  A    between atoms: _36  and  NI_250
REMARK   15  A    between atoms: _37  and  _39
REMARK   16  A    between atoms: _39  and  _40
REMARK   17  A    between atoms: _39  and  _42
REMARK   18  A    between atoms: _42  and  _43
REMARK   19  A    between atoms: _46  and  _48
REMARK   20  A    between atoms: _48  and  _49
REMARK   21  A    between atoms: _48  and  _51
REMARK   22  A    between atoms: _51  and  _52
REMARK   23  A    between atoms: _52  and  _54
REMARK   24  A    between atoms: _54  and  NI_250
REMARK   25  A    between atoms: _55  and  _57
REMARK   26  A    between atoms: _57  and  _58
REMARK   27  A    between atoms: _57  and  _60
REMARK   28  A    between atoms: _60  and  _61
REMARK   29  A    between atoms: _64  and  _66
REMARK   30  A    between atoms: _66  and  _67
REMARK   31  A    between atoms: _66  and  _69
REMARK   32  A    between atoms: _71  and  _73
REMARK   33  A    between atoms: _73  and  _74
REMARK   34  A    between atoms: _73  and  _76
REMARK   35  A    between atoms: _76  and  _77
REMARK   36  A    between atoms: _79  and  _81
REMARK   37  A    between atoms: _81  and  _82
REMARK   38  A    between atoms: _81  and  _84
REMARK   39  A    between atoms: _87  and  _89
REMARK   40  A    between atoms: _89  and  _90
REMARK   41  A    between atoms: _89  and  _92
REMARK   42  A    between atoms: _92  and  _93
REMARK   43  A    between atoms: _96  and  _98
REMARK   44  A    between atoms: _98  and  _99
REMARK   45  A    between atoms: _98  and  _101
REMARK   46  A    between atoms: _101  and  _102
REMARK   47  A    between atoms: _105  and  _107
REMARK   48  A    between atoms: _107  and  _108
REMARK   49  A    between atoms: _111  and  _113
REMARK   50  A    between atoms: _113  and  _114
REMARK   51  A    between atoms: _113  and  _116
REMARK   52  A    between atoms: _116  and  _117
REMARK   53  A    between atoms: _120  and  _122
REMARK   54  A    between atoms: _122  and  _123
REMARK   55  A    between atoms: _122  and  _125
REMARK   56  A    between atoms: _125  and  _126
REMARK   57  A    between atoms: _131  and  _132
REMARK   58  A    between atoms: _134  and  _136
REMARK   59  A    between atoms: _136  and  _137
REMARK   60  A    between atoms: _136  and  _139
REMARK   61  A    between atoms: _139  and  _140
REMARK   62  A    between atoms: _146  and  _148
REMARK   63  A    between atoms: _148  and  _149
REMARK   64  A    between atoms: _148  and  _151
REMARK   65  A    between atoms: _151  and  _152
REMARK   66  A    between atoms: _152  and  _153
REMARK   67  A    between atoms: _155  and  _157
REMARK   68  A    between atoms: _157  and  _158
REMARK   69  A    between atoms: _157  and  _160
REMARK   70  A    between atoms: _163  and  _165
REMARK   71  A    between atoms: _165  and  _166
REMARK   72  A    between atoms: _168  and  _170
REMARK   73  A    between atoms: _170  and  _171
REMARK   74  A    between atoms: _170  and  _173
REMARK   75  A    between atoms: _173  and  _174
REMARK   76  A    between atoms: _174  and  _175
REMARK   77  A    between atoms: _180  and  _182
REMARK   78  A    between atoms: _182  and  _183
REMARK   79  A    between atoms: _182  and  _185
REMARK   80  A    between atoms: _185  and  _186
REMARK   81  A    between atoms: _189  and  _191
REMARK   82  A    between atoms: _191  and  _192
REMARK   83  A    between atoms: _194  and  _196
REMARK   84  A    between atoms: _196  and  _197
REMARK   85  A    between atoms: _196  and  _199
REMARK   86  A    between atoms: _199  and  _200
REMARK   87  A    between atoms: _206  and  _208
REMARK   88  A    between atoms: _208  and  _209
REMARK   89  A    between atoms: _208  and  _211
REMARK   90  A    between atoms: _211  and  _212
REMARK   91  A    between atoms: _217  and  _218
REMARK   92  A    between atoms: _220  and  _222
REMARK   93  A    between atoms: _222  and  _223
REMARK   94  A    between atoms: _222  and  _225
REMARK   95  A    between atoms: _228  and  _230
REMARK   96  A    between atoms: _230  and  _231
REMARK   97  A    between atoms: _234  and  _236
REMARK   98  A    between atoms: _236  and  _237
REMARK   99  A    between atoms: _236  and  _239
REMARK  100  A    between atoms: _239  and  _240
REMARK                            x       y       z     vdW  Elec       q    Type
REMARK                         _______ _______ _______ _____ _____    ______ ____
ROOT
ATOM      1  CA  MET A   1       6.320  17.568  34.769  0.00  0.00    +0.134 C 
ENDROOT
BRANCH   1   2
ATOM      2  N   MET A   1       6.105  17.641  33.330  0.00  0.00    -0.239 NA
ATOM      3  H   MET A   1       5.691  16.821  32.843  0.00  0.00    +0.142 HD
ENDBRANCH   1   2
BRANCH   1   4
ATOM      4  C   MET A   1       7.787  17.649  35.119  0.00  0.00    +0.224 C 
ATOM      5  O   MET A   1       8.139  18.113  36.192  0.00  0.00    -0.287 OA
ENDBRANCH   1   4
BRANCH   1   6
ATOM      6  CB  MET A   1       5.772  16.235  35.300  0.00  0.00    +0.037 C 
BRANCH   6   7
ATOM      7  CG  MET A   1       5.653  16.221  36.825  0.00  0.00    +0.059 C 
BRANCH   7   8
ATOM      8  SD  MET A   1       5.222  14.591  37.471  0.00  0.00    -0.139 S 
ATOM      9  CE  MET A   1       6.754  13.719  37.169  0.00  0.00    +0.069 C 
ENDBRANCH   7   8
ENDBRANCH   6   7
ENDBRANCH   1   6
TORSDOF 5
REMARK  Name = ../refined-set-2016/4llj/4llj_pocket.pdb
REMARK  100 active torsions:
REMARK  status: ('A' for Active; 'I' for Inactive)
REMARK    1  A    between atoms: _1  and  _3
REMARK    2  A    between atoms: _3  and  _4
REMARK    3  A    between atoms: _3  and  _6
REMARK    4  A    between atoms: _6  and  _7
REMARK    5  A    between atoms: _12  and  _13
REMARK    6  A    between atoms: _15  and  _17
REMARK    7  A    between atoms: _17  and  _18
REMARK    8  A    between atoms: _17  and  _20
REMARK    9  A    between atoms: _20  and  _21
REMARK   10  A    between atoms: _26  and  _28
REMARK   11  A    between atoms: _28  and  _29
REMARK   12  A    between atoms: _28  and  _31
REMARK   13  A    between atoms: _31  and  _32
REMARK   14  A    between atoms: _36  and  NI_250
REMARK   15  A    between atoms: _37  and  _39
REMARK   16  A    between atoms: _39  and  _40
REMARK   17  A    between atoms: _39  and  _42
REMARK   18  A    between atoms: _42  and  _43
REMARK   19  A    between atoms: _46  and  _48
REMARK   20  A    between atoms: _48  and  _49
REMARK   21  A    between atoms: _48  and  _51
REMARK   22  A    between atoms: _51  and  _52
REMARK   23  A    between atoms: _52  and  _54
REMARK   24  A    between atoms: _54  and  NI_250
REMARK   25  A    between atoms: _55  and  _57
REMARK   26  A    between atoms: _57  and  _58
REMARK   27  A    between atoms: _57  and  _60
REMARK   28  A    between atoms: _60  and  _61
REMARK   29  A    between atoms: _64  and  _66
REMARK   30  A    between atoms: _66  and  _67
REMARK   31  A    between atoms: _66  and  _69
REMARK   32  A    between atoms: _71  and  _73
REMARK   33  A    between atoms: _73  and  _74
REMARK   34  A    between atoms: _73  and  _76
REMARK   35  A    between atoms: _76  and  _77
REMARK   36  A    between atoms: _79  and  _81
REMARK   37  A    between atoms: _81  and  _82
REMARK   38  A    between atoms: _81  and  _84
REMARK   39  A    between atoms: _87  and  _89
REMARK   40  A    between atoms: _89  and  _90
REMARK   41  A    between atoms: _89  and  _92
REMARK   42  A    between atoms: _92  and  _93
REMARK   43  A    between atoms: _96  and  _98
REMARK   44  A    between atoms: _98  and  _99
REMARK   45  A    between atoms: _98  and  _101
REMARK   46  A    between atoms: _101  and  _102
REMARK   47  A    between atoms: _105  and  _107
REMARK   48  A    between atoms: _107  and  _108
REMARK   49  A    between atoms: _111  and  _113
REMARK   50  A    between atoms: _113  and  _114
REMARK   51  A    between atoms: _113  and  _116
REMARK   52  A    between atoms: _116  and  _117
REMARK   53  A    between atoms: _120  and  _122
REMARK   54  A    between atoms: _122  and  _123
REMARK   55  A    between atoms: _122  and  _125
REMARK   56  A    between atoms: _125  and  _126
REMARK   57  A    between atoms: _131  and  _132
REMARK   58  A    between atoms: _134  and  _136
REMARK   59  A    between atoms: _136  and  _137
REMARK   60  A    between atoms: _136  and  _139
REMARK   61  A    between atoms: _139  and  _140
REMARK   62  A    between atoms: _146  and  _148
REMARK   63  A    between atoms: _148  and  _149
REMARK   64  A    between atoms: _148  and  _151
REMARK   65  A    between atoms: _151  and  _152
REMARK   66  A    between atoms: _152  and  _153
REMARK   67  A    between atoms: _155  and  _157
REMARK   68  A    between atoms: _157  and  _158
REMARK   69  A    between atoms: _157  and  _160
REMARK   70  A    between atoms: _163  and  _165
REMARK   71  A    between atoms: _165  and  _166
REMARK   72  A    between atoms: _168  and  _170
REMARK   73  A    between atoms: _170  and  _171
REMARK   74  A    between atoms: _170  and  _173
REMARK   75  A    between atoms: _173  and  _174
REMARK   76  A    between atoms: _174  and  _175
REMARK   77  A    between atoms: _180  and  _182
REMARK   78  A    between atoms: _182  and  _183
REMARK   79  A    between atoms: _182  and  _185
REMARK   80  A    between atoms: _185  and  _186
REMARK   81  A    between atoms: _189  and  _191
REMARK   82  A    between atoms: _191  and  _192
REMARK   83  A    between atoms: _194  and  _196
REMARK   84  A    between atoms: _196  and  _197
REMARK   85  A    between atoms: _196  and  _199
REMARK   86  A    between atoms: _199  and  _200
REMARK   87  A    between atoms: _206  and  _208
REMARK   88  A    between atoms: _208  and  _209
REMARK   89  A    between atoms: _208  and  _211
REMARK   90  A    between atoms: _211  and  _212
REMARK   91  A    between atoms: _217  and  _218
REMARK   92  A    between atoms: _220  and  _222
REMARK   93  A    between atoms: _222  and  _223
REMARK   94  A    between atoms: _222  and  _225
REMARK   95  A    between atoms: _228  and  _230
REMARK   96  A    between atoms: _230  and  _231
REMARK   97  A    between atoms: _234  and  _236
REMARK   98  A    between atoms: _236  and  _237
REMARK   99  A    between atoms: _236  and  _239
REMARK  100  A    between atoms: _239  and  _240
REMARK                            x       y       z     vdW  Elec       q    Type
REMARK                         _______ _______ _______ _____ _____    ______ ____
ROOT
ATOM      1  CA  VAL A   1       2.700  22.299  38.276  0.00  0.00    +0.133 C 
ENDROOT
BRANCH   1   2
ATOM      2  CB  VAL A   1       3.825  22.835  39.180  0.00  0.00    +0.023 C 
ATOM      3  CG2 VAL A   1       3.747  22.259  40.585  0.00  0.00    +0.002 C 
ATOM      4  CG1 VAL A   1       5.180  22.497  38.566  0.00  0.00    +0.002 C 
ENDBRANCH   1   2
BRANCH   1   5
ATOM      5  N   VAL A   1       2.586  23.076  37.014  0.00  0.00    -0.239 NA
ATOM      6  H   VAL A   1       3.211  23.893  36.865  0.00  0.00    +0.142 HD
ENDBRANCH   1   5
BRANCH   1   7
ATOM      7  C   VAL A   1       1.345  22.176  39.036  0.00  0.00    +0.224 C 
ATOM      8  O   VAL A   1       0.963  21.069  39.419  0.00  0.00    -0.287 OA
ENDBRANCH   1   7
TORSDOF 3
REMARK  Name = ../refined-set-2016/4llj/4llj_pocket.pdb
REMARK  100 active torsions:
REMARK  status: ('A' for Active; 'I' for Inactive)
REMARK    1  A    between atoms: _1  and  _3
REMARK    2  A    between atoms: _3  and  _4
REMARK    3  A    between atoms: _3  and  _6
REMARK    4  A    between atoms: _6  and  _7
REMARK    5  A    between atoms: _12  and  _13
REMARK    6  A    between atoms: _15  and  _17
REMARK    7  A    between atoms: _17  and  _18
REMARK    8  A    between atoms: _17  and  _20
REMARK    9  A    between atoms: _20  and  _21
REMARK   10  A    between atoms: _26  and  _28
REMARK   11  A    between atoms: _28  and  _29
REMARK   12  A    between atoms: _28  and  _31
REMARK   13  A    between atoms: _31  and  _32
REMARK   14  A    between atoms: _36  and  NI_250
REMARK   15  A    between atoms: _37  and  _39
REMARK   16  A    between atoms: _39  and  _40
REMARK   17  A    between atoms: _39  and  _42
REMARK   18  A    between atoms: _42  and  _43
REMARK   19  A    between atoms: _46  and  _48
REMARK   20  A    between atoms: _48  and  _49
REMARK   21  A    between atoms: _48  and  _51
REMARK   22  A    between atoms: _51  and  _52
REMARK   23  A    between atoms: _52  and  _54
REMARK   24  A    between atoms: _54  and  NI_250
REMARK   25  A    between atoms: _55  and  _57
REMARK   26  A    between atoms: _57  and  _58
REMARK   27  A    between atoms: _57  and  _60
REMARK   28  A    between atoms: _60  and  _61
REMARK   29  A    between atoms: _64  and  _66
REMARK   30  A    between atoms: _66  and  _67
REMARK   31  A    between atoms: _66  and  _69
REMARK   32  A    between atoms: _71  and  _73
REMARK   33  A    between atoms: _73  and  _74
REMARK   34  A    between atoms: _73  and  _76
REMARK   35  A    between atoms: _76  and  _77
REMARK   36  A    between atoms: _79  and  _81
REMARK   37  A    between atoms: _81  and  _82
REMARK   38  A    between atoms: _81  and  _84
REMARK   39  A    between atoms: _87  and  _89
REMARK   40  A    between atoms: _89  and  _90
REMARK   41  A    between atoms: _89  and  _92
REMARK   42  A    between atoms: _92  and  _93
REMARK   43  A    between atoms: _96  and  _98
REMARK   44  A    between atoms: _98  and  _99
REMARK   45  A    between atoms: _98  and  _101
REMARK   46  A    between atoms: _101  and  _102
REMARK   47  A    between atoms: _105  and  _107
REMARK   48  A    between atoms: _107  and  _108
REMARK   49  A    between atoms: _111  and  _113
REMARK   50  A    between atoms: _113  and  _114
REMARK   51  A    between atoms: _113  and  _116
REMARK   52  A    between atoms: _116  and  _117
REMARK   53  A    between atoms: _120  and  _122
REMARK   54  A    between atoms: _122  and  _123
REMARK   55  A    between atoms: _122  and  _125
REMARK   56  A    between atoms: _125  and  _126
REMARK   57  A    between atoms: _131  and  _132
REMARK   58  A    between atoms: _134  and  _136
REMARK   59  A    between atoms: _136  and  _137
REMARK   60  A    between atoms: _136  and  _139
REMARK   61  A    between atoms: _139  and  _140
REMARK   62  A    between atoms: _146  and  _148
REMARK   63  A    between atoms: _148  and  _149
REMARK   64  A    between atoms: _148  and  _151
REMARK   65  A    between atoms: _151  and  _152
REMARK   66  A    between atoms: _152  and  _153
REMARK   67  A    between atoms: _155  and  _157
REMARK   68  A    between atoms: _157  and  _158
REMARK   69  A    between atoms: _157  and  _160
REMARK   70  A    between atoms: _163  and  _165
REMARK   71  A    between atoms: _165  and  _166
REMARK   72  A    between atoms: _168  and  _170
REMARK   73  A    between atoms: _170  and  _171
REMARK   74  A    between atoms: _170  and  _173
REMARK   75  A    between atoms: _173  and  _174
REMARK   76  A    between atoms: _174  and  _175
REMARK   77  A    between atoms: _180  and  _182
REMARK   78  A    between atoms: _182  and  _183
REMARK   79  A    between atoms: _182  and  _185
REMARK   80  A    between atoms: _185  and  _186
REMARK   81  A    between atoms: _189  and  _191
REMARK   82  A    between atoms: _191  and  _192
REMARK   83  A    between atoms: _194  and  _196
REMARK   84  A    between atoms: _196  and  _197
REMARK   85  A    between atoms: _196  and  _199
REMARK   86  A    between atoms: _199  and  _200
REMARK   87  A    between atoms: _206  and  _208
REMARK   88  A    between atoms: _208  and  _209
REMARK   89  A    between atoms: _208  and  _211
REMARK   90  A    between atoms: _211  and  _212
REMARK   91  A    between atoms: _217  and  _218
REMARK   92  A    between atoms: _220  and  _222
REMARK   93  A    between atoms: _222  and  _223
REMARK   94  A    between atoms: _222  and  _225
REMARK   95  A    between atoms: _228  and  _230
REMARK   96  A    between atoms: _230  and  _231
REMARK   97  A    between atoms: _234  and  _236
REMARK   98  A    between atoms: _236  and  _237
REMARK   99  A    between atoms: _236  and  _239
REMARK  100  A    between atoms: _239  and  _240
REMARK                            x       y       z     vdW  Elec       q    Type
REMARK                         _______ _______ _______ _____ _____    ______ ____
ROOT
ATOM      1  CA  GLY A   4      -4.084  15.340  38.362  0.00  0.00    +0.176 C 
ENDROOT
BRANCH   1   2
ATOM      2  C   GLY A   4      -3.566  14.193  39.214  0.00  0.00    +0.243 C 
ATOM      3  N   PHE A   5      -2.402  14.382  39.831  0.00  0.00    -0.297 N 
ATOM      4  H   PHE A   5      -1.873  15.263  39.673  0.00  0.00    +0.150 HD
ATOM      5  O   GLY A   4      -4.195  13.140  39.306  0.00  0.00    -0.273 OA
BRANCH   3   6
ATOM      6  CA  PHE A   5      -1.860  13.364  40.728  0.00  0.00    +0.153 C 
BRANCH   6   7
ATOM      7  C   PHE A   5      -2.797  13.062  41.915  0.00  0.00    +0.241 C 
ATOM      8  N   TYR A   6      -3.329  14.095  42.542  0.00  0.00    -0.298 N 
ATOM      9  H   TYR A   6      -3.103  15.067  42.248  0.00  0.00    +0.150 HD
ATOM     10  O   PHE A   5      -3.005  11.902  42.270  0.00  0.00    -0.273 OA
BRANCH   8  11
ATOM     11  CA  TYR A   6      -4.253  13.845  43.670  0.00  0.00    +0.141 C 
BRANCH  11  12
ATOM     12  C   TYR A   6      -5.513  13.114  43.202  0.00  0.00    +0.227 C 
ATOM     13  O   TYR A   6      -5.973  12.187  43.881  0.00  0.00    -0.286 OA
ENDBRANCH  11  12
BRANCH  11  14
ATOM     14  CB  TYR A   6      -4.649  15.133  44.343  0.00  0.00    +0.054 C 
BRANCH  14  15
ATOM     15  CG  TYR A   6      -3.657  15.693  45.333  0.00  0.00    -0.020 A 
ATOM     16  CD2 TYR A   6      -3.981  15.779  46.684  0.00  0.00    -0.001 A 
ATOM     17  CE2 TYR A   6      -3.118  16.320  47.607  0.00  0.00    +0.036 A 
ATOM     18  CZ  TYR A   6      -1.863  16.762  47.173  0.00  0.00    +0.134 A 
ATOM     19  CE1 TYR A   6      -1.502  16.661  45.850  0.00  0.00    +0.036 A 
ATOM     20  CD1 TYR A   6      -2.405  16.132  44.929  0.00  0.00    -0.001 A 
BRANCH  18  21
ATOM     21  OH  TYR A   6      -0.964  17.289  48.071  0.00  0.00    -0.506 OA
ATOM     22  HH  TYR A   6      -0.136  17.547  47.594  0.00  0.00    +0.292 HD
ENDBRANCH  18  21
ENDBRANCH  14  15
ENDBRANCH  11  14
ENDBRANCH   8  11
ENDBRANCH   6   7
BRANCH   6  23
ATOM     23  CB  PHE A   5      -0.473  13.765  41.247  0.00  0.00    +0.055 C 
BRANCH  23  24
ATOM     24  CG  PHE A   5       0.199  12.670  42.050  0.00  0.00    -0.020 A 
ATOM     25  CD2 PHE A   5       0.202  12.701  43.439  0.00  0.00    -0.004 A 
ATOM     26  CE2 PHE A   5       0.774  11.657  44.184  0.00  0.00    -0.000 A 
ATOM     27  CZ  PHE A   5       1.400  10.597  43.513  0.00  0.00    -0.000 A 
ATOM     28  CE1 PHE A   5       1.424  10.570  42.113  0.00  0.00    -0.000 A 
ATOM     29  CD1 PHE A   5       0.821  11.611  41.392  0.00  0.00    -0.004 A 
ENDBRANCH  23  24
ENDBRANCH   6  23
ENDBRANCH   3   6
ENDBRANCH   1   2
BRANCH   1  32
ATOM     30  C   LEU A   3      -4.645  16.874  40.195  0.00  0.00    +0.241 C 
ATOM     31  O   LEU A   3      -5.374  16.028  40.730  0.00  0.00    -0.273 OA
ATOM     32  N   GLY A   4      -4.012  16.637  39.050  0.00  0.00    -0.295 N 
ATOM     33  H   GLY A   4      -3.445  17.398  38.625  0.00  0.00    +0.150 HD
BRANCH  30  34
ATOM     34  CA  LEU A   3      -4.426  18.262  40.834  0.00  0.00    +0.149 C 
BRANCH  34  37
ATOM     35  C   GLN A   2      -2.140  17.802  41.384  0.00  0.00    +0.241 C 
ATOM     36  O   GLN A   2      -2.476  16.717  41.901  0.00  0.00    -0.273 OA
ATOM     37  N   LEU A   3      -3.019  18.646  40.866  0.00  0.00    -0.297 N 
ATOM     38  H   LEU A   3      -2.712  19.565  40.489  0.00  0.00    +0.150 HD
BRANCH  35  39
ATOM     39  CA  GLN A   2      -0.675  18.177  41.262  0.00  0.00    +0.149 C 
BRANCH  39  41
ATOM     40  C   GLY A   1      -0.411  17.852  38.861  0.00  0.00    +0.240 C 
ATOM     41  N   GLN A   2      -0.362  18.664  39.916  0.00  0.00    -0.297 N 
ATOM     42  H   GLN A   2      -0.097  19.661  39.782  0.00  0.00    +0.150 HD
ATOM     43  O   GLY A   1      -0.616  16.631  38.961  0.00  0.00    -0.274 OA
BRANCH  40  44
ATOM     44  CA  GLY A   1      -0.112  18.504  37.507  0.00  0.00    +0.169 C 
BRANCH  44  45
ATOM     45  N   GLY A   1      -0.790  19.808  37.367  0.00  0.00    -0.236 NA
ATOM     46  H   GLY A   1      -0.225  20.663  37.191  0.00  0.00    +0.142 HD
ENDBRANCH  44  45
ENDBRANCH  40  44
ENDBRANCH  39  41
BRANCH  39  47
ATOM     47  CB  GLN A   2      -0.302  19.240  42.285  0.00  0.00    +0.039 C 
BRANCH  47  48
ATOM     48  CG  GLN A   2       1.190  19.373  42.486  0.00  0.00    +0.087 C 
BRANCH  48  49
ATOM     49  CD  GLN A   2       1.832  18.071  42.887  0.00  0.00    +0.219 C 
ATOM     50  NE2 GLN A   2       1.527  17.602  44.069  0.00  0.00    -0.329 N 
ATOM     51 HE21 GLN A   2       0.930  18.161  44.712  0.00  0.00    +0.145 HD
ATOM     52 HE22 GLN A   2       1.881  16.670  44.366  0.00  0.00    +0.145 HD
ATOM     53  OE1 GLN A   2       2.536  17.444  42.092  0.00  0.00    -0.275 OA
ENDBRANCH  48  49
ENDBRANCH  47  48
ENDBRANCH  39  47
ENDBRANCH  35  39
ENDBRANCH  34  37
BRANCH  34  54
ATOM     54  CB  LEU A   3      -5.270  19.311  40.094  0.00  0.00    +0.029 C 
BRANCH  54  55
ATOM     55  CG  LEU A   3      -6.793  19.194  40.160  0.00  0.00    +0.002 C 
ATOM     56  CD2 LEU A   3      -7.282  19.357  41.572  0.00  0.00    +0.000 C 
ATOM     57  CD1 LEU A   3      -7.418  20.267  39.267  0.00  0.00    +0.000 C 
ENDBRANCH  54  55
ENDBRANCH  34  54
ENDBRANCH  30  34
ENDBRANCH   1  32
TORSDOF 22
REMARK  Name = ../refined-set-2016/4llj/4llj_pocket.pdb
REMARK  100 active torsions:
REMARK  status: ('A' for Active; 'I' for Inactive)
REMARK    1  A    between atoms: _1  and  _3
REMARK    2  A    between atoms: _3  and  _4
REMARK    3  A    between atoms: _3  and  _6
REMARK    4  A    between atoms: _6  and  _7
REMARK    5  A    between atoms: _12  and  _13
REMARK    6  A    between atoms: _15  and  _17
REMARK    7  A    between atoms: _17  and  _18
REMARK    8  A    between atoms: _17  and  _20
REMARK    9  A    between atoms: _20  and  _21
REMARK   10  A    between atoms: _26  and  _28
REMARK   11  A    between atoms: _28  and  _29
REMARK   12  A    between atoms: _28  and  _31
REMARK   13  A    between atoms: _31  and  _32
REMARK   14  A    between atoms: _36  and  NI_250
REMARK   15  A    between atoms: _37  and  _39
REMARK   16  A    between atoms: _39  and  _40
REMARK   17  A    between atoms: _39  and  _42
REMARK   18  A    between atoms: _42  and  _43
REMARK   19  A    between atoms: _46  and  _48
REMARK   20  A    between atoms: _48  and  _49
REMARK   21  A    between atoms: _48  and  _51
REMARK   22  A    between atoms: _51  and  _52
REMARK   23  A    between atoms: _52  and  _54
REMARK   24  A    between atoms: _54  and  NI_250
REMARK   25  A    between atoms: _55  and  _57
REMARK   26  A    between atoms: _57  and  _58
REMARK   27  A    between atoms: _57  and  _60
REMARK   28  A    between atoms: _60  and  _61
REMARK   29  A    between atoms: _64  and  _66
REMARK   30  A    between atoms: _66  and  _67
REMARK   31  A    between atoms: _66  and  _69
REMARK   32  A    between atoms: _71  and  _73
REMARK   33  A    between atoms: _73  and  _74
REMARK   34  A    between atoms: _73  and  _76
REMARK   35  A    between atoms: _76  and  _77
REMARK   36  A    between atoms: _79  and  _81
REMARK   37  A    between atoms: _81  and  _82
REMARK   38  A    between atoms: _81  and  _84
REMARK   39  A    between atoms: _87  and  _89
REMARK   40  A    between atoms: _89  and  _90
REMARK   41  A    between atoms: _89  and  _92
REMARK   42  A    between atoms: _92  and  _93
REMARK   43  A    between atoms: _96  and  _98
REMARK   44  A    between atoms: _98  and  _99
REMARK   45  A    between atoms: _98  and  _101
REMARK   46  A    between atoms: _101  and  _102
REMARK   47  A    between atoms: _105  and  _107
REMARK   48  A    between atoms: _107  and  _108
REMARK   49  A    between atoms: _111  and  _113
REMARK   50  A    between atoms: _113  and  _114
REMARK   51  A    between atoms: _113  and  _116
REMARK   52  A    between atoms: _116  and  _117
REMARK   53  A    between atoms: _120  and  _122
REMARK   54  A    between atoms: _122  and  _123
REMARK   55  A    between atoms: _122  and  _125
REMARK   56  A    between atoms: _125  and  _126
REMARK   57  A    between atoms: _131  and  _132
REMARK   58  A    between atoms: _134  and  _136
REMARK   59  A    between atoms: _136  and  _137
REMARK   60  A    between atoms: _136  and  _139
REMARK   61  A    between atoms: _139  and  _140
REMARK   62  A    between atoms: _146  and  _148
REMARK   63  A    between atoms: _148  and  _149
REMARK   64  A    between atoms: _148  and  _151
REMARK   65  A    between atoms: _151  and  _152
REMARK   66  A    between atoms: _152  and  _153
REMARK   67  A    between atoms: _155  and  _157
REMARK   68  A    between atoms: _157  and  _158
REMARK   69  A    between atoms: _157  and  _160
REMARK   70  A    between atoms: _163  and  _165
REMARK   71  A    between atoms: _165  and  _166
REMARK   72  A    between atoms: _168  and  _170
REMARK   73  A    between atoms: _170  and  _171
REMARK   74  A    between atoms: _170  and  _173
REMARK   75  A    between atoms: _173  and  _174
REMARK   76  A    between atoms: _174  and  _175
REMARK   77  A    between atoms: _180  and  _182
REMARK   78  A    between atoms: _182  and  _183
REMARK   79  A    between atoms: _182  and  _185
REMARK   80  A    between atoms: _185  and  _186
REMARK   81  A    between atoms: _189  and  _191
REMARK   82  A    between atoms: _191  and  _192
REMARK   83  A    between atoms: _194  and  _196
REMARK   84  A    between atoms: _196  and  _197
REMARK   85  A    between atoms: _196  and  _199
REMARK   86  A    between atoms: _199  and  _200
REMARK   87  A    between atoms: _206  and  _208
REMARK   88  A    between atoms: _208  and  _209
REMARK   89  A    between atoms: _208  and  _211
REMARK   90  A    between atoms: _211  and  _212
REMARK   91  A    between atoms: _217  and  _218
REMARK   92  A    between atoms: _220  and  _222
REMARK   93  A    between atoms: _222  and  _223
REMARK   94  A    between atoms: _222  and  _225
REMARK   95  A    between atoms: _228  and  _230
REMARK   96  A    between atoms: _230  and  _231
REMARK   97  A    between atoms: _234  and  _236
REMARK   98  A    between atoms: _236  and  _237
REMARK   99  A    between atoms: _236  and  _239
REMARK  100  A    between atoms: _239  and  _240
REMARK                            x       y       z     vdW  Elec       q    Type
REMARK                         _______ _______ _______ _____ _____    ______ ____
ROOT
ATOM      1  C   VAL A   1      -3.721   8.738  44.113  0.00  0.00    +0.238 C 
ATOM      2  O   VAL A   1      -4.200   7.799  44.756  0.00  0.00    -0.274 OA
ATOM      3  N   ALA A   2      -3.482   9.929  44.650  0.00  0.00    -0.298 N 
ATOM      4  H   ALA A   2      -3.281  10.748  44.041  0.00  0.00    +0.150 HD
ENDROOT
BRANCH   3   5
ATOM      5  CA  ALA A   2      -3.504  10.082  46.122  0.00  0.00    +0.137 C 
ATOM      6  CB  ALA A   2      -2.897  11.427  46.523  0.00  0.00    +0.030 C 
BRANCH   5   7
ATOM      7  C   ALA A   2      -4.881   9.901  46.775  0.00  0.00    +0.227 C 
ATOM      8  O   ALA A   2      -5.048   9.105  47.727  0.00  0.00    -0.286 OA
ENDBRANCH   5   7
ENDBRANCH   3   5
BRANCH   1   9
ATOM      9  CA  VAL A   1      -3.388   8.549  42.643  0.00  0.00    +0.145 C 
BRANCH   9  10
ATOM     10  CB  VAL A   1      -1.849   8.731  42.378  0.00  0.00    +0.025 C 
ATOM     11  CG2 VAL A   1      -1.025   7.805  43.285  0.00  0.00    +0.002 C 
ATOM     12  CG1 VAL A   1      -1.505   8.375  40.897  0.00  0.00    +0.002 C 
ENDBRANCH   9  10
BRANCH   9  13
ATOM     13  N   VAL A   1      -4.217   9.379  41.795  0.00  0.00    -0.238 NA
ATOM     14  H   VAL A   1      -4.221  10.408  41.943  0.00  0.00    +0.142 HD
ENDBRANCH   9  13
ENDBRANCH   1   9
TORSDOF 5
REMARK  Name = ../refined-set-2016/4llj/4llj_pocket.pdb
REMARK  100 active torsions:
REMARK  status: ('A' for Active; 'I' for Inactive)
REMARK    1  A    between atoms: _1  and  _3
REMARK    2  A    between atoms: _3  and  _4
REMARK    3  A    between atoms: _3  and  _6
REMARK    4  A    between atoms: _6  and  _7
REMARK    5  A    between atoms: _12  and  _13
REMARK    6  A    between atoms: _15  and  _17
REMARK    7  A    between atoms: _17  and  _18
REMARK    8  A    between atoms: _17  and  _20
REMARK    9  A    between atoms: _20  and  _21
REMARK   10  A    between atoms: _26  and  _28
REMARK   11  A    between atoms: _28  and  _29
REMARK   12  A    between atoms: _28  and  _31
REMARK   13  A    between atoms: _31  and  _32
REMARK   14  A    between atoms: _36  and  NI_250
REMARK   15  A    between atoms: _37  and  _39
REMARK   16  A    between atoms: _39  and  _40
REMARK   17  A    between atoms: _39  and  _42
REMARK   18  A    between atoms: _42  and  _43
REMARK   19  A    between atoms: _46  and  _48
REMARK   20  A    between atoms: _48  and  _49
REMARK   21  A    between atoms: _48  and  _51
REMARK   22  A    between atoms: _51  and  _52
REMARK   23  A    between atoms: _52  and  _54
REMARK   24  A    between atoms: _54  and  NI_250
REMARK   25  A    between atoms: _55  and  _57
REMARK   26  A    between atoms: _57  and  _58
REMARK   27  A    between atoms: _57  and  _60
REMARK   28  A    between atoms: _60  and  _61
REMARK   29  A    between atoms: _64  and  _66
REMARK   30  A    between atoms: _66  and  _67
REMARK   31  A    between atoms: _66  and  _69
REMARK   32  A    between atoms: _71  and  _73
REMARK   33  A    between atoms: _73  and  _74
REMARK   34  A    between atoms: _73  and  _76
REMARK   35  A    between atoms: _76  and  _77
REMARK   36  A    between atoms: _79  and  _81
REMARK   37  A    between atoms: _81  and  _82
REMARK   38  A    between atoms: _81  and  _84
REMARK   39  A    between atoms: _87  and  _89
REMARK   40  A    between atoms: _89  and  _90
REMARK   41  A    between atoms: _89  and  _92
REMARK   42  A    between atoms: _92  and  _93
REMARK   43  A    between atoms: _96  and  _98
REMARK   44  A    between atoms: _98  and  _99
REMARK   45  A    between atoms: _98  and  _101
REMARK   46  A    between atoms: _101  and  _102
REMARK   47  A    between atoms: _105  and  _107
REMARK   48  A    between atoms: _107  and  _108
REMARK   49  A    between atoms: _111  and  _113
REMARK   50  A    between atoms: _113  and  _114
REMARK   51  A    between atoms: _113  and  _116
REMARK   52  A    between atoms: _116  and  _117
REMARK   53  A    between atoms: _120  and  _122
REMARK   54  A    between atoms: _122  and  _123
REMARK   55  A    between atoms: _122  and  _125
REMARK   56  A    between atoms: _125  and  _126
REMARK   57  A    between atoms: _131  and  _132
REMARK   58  A    between atoms: _134  and  _136
REMARK   59  A    between atoms: _136  and  _137
REMARK   60  A    between atoms: _136  and  _139
REMARK   61  A    between atoms: _139  and  _140
REMARK   62  A    between atoms: _146  and  _148
REMARK   63  A    between atoms: _148  and  _149
REMARK   64  A    between atoms: _148  and  _151
REMARK   65  A    between atoms: _151  and  _152
REMARK   66  A    between atoms: _152  and  _153
REMARK   67  A    between atoms: _155  and  _157
REMARK   68  A    between atoms: _157  and  _158
REMARK   69  A    between atoms: _157  and  _160
REMARK   70  A    between atoms: _163  and  _165
REMARK   71  A    between atoms: _165  and  _166
REMARK   72  A    between atoms: _168  and  _170
REMARK   73  A    between atoms: _170  and  _171
REMARK   74  A    between atoms: _170  and  _173
REMARK   75  A    between atoms: _173  and  _174
REMARK   76  A    between atoms: _174  and  _175
REMARK   77  A    between atoms: _180  and  _182
REMARK   78  A    between atoms: _182  and  _183
REMARK   79  A    between atoms: _182  and  _185
REMARK   80  A    between atoms: _185  and  _186
REMARK   81  A    between atoms: _189  and  _191
REMARK   82  A    between atoms: _191  and  _192
REMARK   83  A    between atoms: _194  and  _196
REMARK   84  A    between atoms: _196  and  _197
REMARK   85  A    between atoms: _196  and  _199
REMARK   86  A    between atoms: _199  and  _200
REMARK   87  A    between atoms: _206  and  _208
REMARK   88  A    between atoms: _208  and  _209
REMARK   89  A    between atoms: _208  and  _211
REMARK   90  A    between atoms: _211  and  _212
REMARK   91  A    between atoms: _217  and  _218
REMARK   92  A    between atoms: _220  and  _222
REMARK   93  A    between atoms: _222  and  _223
REMARK   94  A    between atoms: _222  and  _225
REMARK   95  A    between atoms: _228  and  _230
REMARK   96  A    between atoms: _230  and  _231
REMARK   97  A    between atoms: _234  and  _236
REMARK   98  A    between atoms: _236  and  _237
REMARK   99  A    between atoms: _236  and  _239
REMARK  100  A    between atoms: _239  and  _240
REMARK                            x       y       z     vdW  Elec       q    Type
REMARK                         _______ _______ _______ _____ _____    ______ ____
ROOT
ATOM      1  CG  TRP A   1      -2.131  21.313  45.048  0.00  0.00    -0.002 A 
ATOM      2  CD1 TRP A   1      -1.885  20.251  45.882  0.00  0.00    +0.068 A 
ATOM      3  NE1 TRP A   1      -0.522  20.184  46.177  0.00  0.00    -0.352 N 
ATOM      4  HE1 TRP A   1      -0.071  19.499  46.817  0.00  0.00    +0.166 HD
ATOM      5  CE2 TRP A   1       0.118  21.169  45.483  0.00  0.00    +0.056 A 
ATOM      6  CZ2 TRP A   1       1.513  21.499  45.438  0.00  0.00    +0.017 A 
ATOM      7  CH2 TRP A   1       1.864  22.566  44.663  0.00  0.00    +0.001 A 
ATOM      8  CZ3 TRP A   1       0.926  23.286  43.945  0.00  0.00    +0.000 A 
ATOM      9  CE3 TRP A   1      -0.436  22.982  43.994  0.00  0.00    +0.001 A 
ATOM     10  CD2 TRP A   1      -0.853  21.902  44.770  0.00  0.00    +0.013 A 
ENDROOT
BRANCH   1  11
ATOM     11  CB  TRP A   1      -3.492  21.765  44.505  0.00  0.00    +0.053 C 
BRANCH  11  12
ATOM     12  CA  TRP A   1      -3.927  23.131  45.078  0.00  0.00    +0.137 C 
BRANCH  12  13
ATOM     13  N   TRP A   1      -4.352  23.049  46.477  0.00  0.00    -0.239 NA
ATOM     14  H   TRP A   1      -4.414  22.127  46.954  0.00  0.00    +0.142 HD
ENDBRANCH  12  13
BRANCH  12  15
ATOM     15  C   TRP A   1      -5.029  23.756  44.221  0.00  0.00    +0.224 C 
ATOM     16  O   TRP A   1      -4.711  24.494  43.290  0.00  0.00    -0.287 OA
ENDBRANCH  12  15
ENDBRANCH  11  12
ENDBRANCH   1  11
TORSDOF 4
REMARK  Name = ../refined-set-2016/4llj/4llj_pocket.pdb
REMARK  100 active torsions:
REMARK  status: ('A' for Active; 'I' for Inactive)
REMARK    1  A    between atoms: _1  and  _3
REMARK    2  A    between atoms: _3  and  _4
REMARK    3  A    between atoms: _3  and  _6
REMARK    4  A    between atoms: _6  and  _7
REMARK    5  A    between atoms: _12  and  _13
REMARK    6  A    between atoms: _15  and  _17
REMARK    7  A    between atoms: _17  and  _18
REMARK    8  A    between atoms: _17  and  _20
REMARK    9  A    between atoms: _20  and  _21
REMARK   10  A    between atoms: _26  and  _28
REMARK   11  A    between atoms: _28  and  _29
REMARK   12  A    between atoms: _28  and  _31
REMARK   13  A    between atoms: _31  and  _32
REMARK   14  A    between atoms: _36  and  NI_250
REMARK   15  A    between atoms: _37  and  _39
REMARK   16  A    between atoms: _39  and  _40
REMARK   17  A    between atoms: _39  and  _42
REMARK   18  A    between atoms: _42  and  _43
REMARK   19  A    between atoms: _46  and  _48
REMARK   20  A    between atoms: _48  and  _49
REMARK   21  A    between atoms: _48  and  _51
REMARK   22  A    between atoms: _51  and  _52
REMARK   23  A    between atoms: _52  and  _54
REMARK   24  A    between atoms: _54  and  NI_250
REMARK   25  A    between atoms: _55  and  _57
REMARK   26  A    between atoms: _57  and  _58
REMARK   27  A    between atoms: _57  and  _60
REMARK   28  A    between atoms: _60  and  _61
REMARK   29  A    between atoms: _64  and  _66
REMARK   30  A    between atoms: _66  and  _67
REMARK   31  A    between atoms: _66  and  _69
REMARK   32  A    between atoms: _71  and  _73
REMARK   33  A    between atoms: _73  and  _74
REMARK   34  A    between atoms: _73  and  _76
REMARK   35  A    between atoms: _76  and  _77
REMARK   36  A    between atoms: _79  and  _81
REMARK   37  A    between atoms: _81  and  _82
REMARK   38  A    between atoms: _81  and  _84
REMARK   39  A    between atoms: _87  and  _89
REMARK   40  A    between atoms: _89  and  _90
REMARK   41  A    between atoms: _89  and  _92
REMARK   42  A    between atoms: _92  and  _93
REMARK   43  A    between atoms: _96  and  _98
REMARK   44  A    between atoms: _98  and  _99
REMARK   45  A    between atoms: _98  and  _101
REMARK   46  A    between atoms: _101  and  _102
REMARK   47  A    between atoms: _105  and  _107
REMARK   48  A    between atoms: _107  and  _108
REMARK   49  A    between atoms: _111  and  _113
REMARK   50  A    between atoms: _113  and  _114
REMARK   51  A    between atoms: _113  and  _116
REMARK   52  A    between atoms: _116  and  _117
REMARK   53  A    between atoms: _120  and  _122
REMARK   54  A    between atoms: _122  and  _123
REMARK   55  A    between atoms: _122  and  _125
REMARK   56  A    between atoms: _125  and  _126
REMARK   57  A    between atoms: _131  and  _132
REMARK   58  A    between atoms: _134  and  _136
REMARK   59  A    between atoms: _136  and  _137
REMARK   60  A    between atoms: _136  and  _139
REMARK   61  A    between atoms: _139  and  _140
REMARK   62  A    between atoms: _146  and  _148
REMARK   63  A    between atoms: _148  and  _149
REMARK   64  A    between atoms: _148  and  _151
REMARK   65  A    between atoms: _151  and  _152
REMARK   66  A    between atoms: _152  and  _153
REMARK   67  A    between atoms: _155  and  _157
REMARK   68  A    between atoms: _157  and  _158
REMARK   69  A    between atoms: _157  and  _160
REMARK   70  A    between atoms: _163  and  _165
REMARK   71  A    between atoms: _165  and  _166
REMARK   72  A    between atoms: _168  and  _170
REMARK   73  A    between atoms: _170  and  _171
REMARK   74  A    between atoms: _170  and  _173
REMARK   75  A    between atoms: _173  and  _174
REMARK   76  A    between atoms: _174  and  _175
REMARK   77  A    between atoms: _180  and  _182
REMARK   78  A    between atoms: _182  and  _183
REMARK   79  A    between atoms: _182  and  _185
REMARK   80  A    between atoms: _185  and  _186
REMARK   81  A    between atoms: _189  and  _191
REMARK   82  A    between atoms: _191  and  _192
REMARK   83  A    between atoms: _194  and  _196
REMARK   84  A    between atoms: _196  and  _197
REMARK   85  A    between atoms: _196  and  _199
REMARK   86  A    between atoms: _199  and  _200
REMARK   87  A    between atoms: _206  and  _208
REMARK   88  A    between atoms: _208  and  _209
REMARK   89  A    between atoms: _208  and  _211
REMARK   90  A    between atoms: _211  and  _212
REMARK   91  A    between atoms: _217  and  _218
REMARK   92  A    between atoms: _220  and  _222
REMARK   93  A    between atoms: _222  and  _223
REMARK   94  A    between atoms: _222  and  _225
REMARK   95  A    between atoms: _228  and  _230
REMARK   96  A    between atoms: _230  and  _231
REMARK   97  A    between atoms: _234  and  _236
REMARK   98  A    between atoms: _236  and  _237
REMARK   99  A    between atoms: _236  and  _239
REMARK  100  A    between atoms: _239  and  _240
REMARK                            x       y       z     vdW  Elec       q    Type
REMARK                         _______ _______ _______ _____ _____    ______ ____
ROOT
ATOM      1  O   HOH     1       6.957   4.925  41.879  0.00  0.00    +0.000 OA
ENDROOT
TORSDOF 0
REMARK  Name = ../refined-set-2016/4llj/4llj_pocket.pdb
REMARK  100 active torsions:
REMARK  status: ('A' for Active; 'I' for Inactive)
REMARK    1  A    between atoms: _1  and  _3
REMARK    2  A    between atoms: _3  and  _4
REMARK    3  A    between atoms: _3  and  _6
REMARK    4  A    between atoms: _6  and  _7
REMARK    5  A    between atoms: _12  and  _13
REMARK    6  A    between atoms: _15  and  _17
REMARK    7  A    between atoms: _17  and  _18
REMARK    8  A    between atoms: _17  and  _20
REMARK    9  A    between atoms: _20  and  _21
REMARK   10  A    between atoms: _26  and  _28
REMARK   11  A    between atoms: _28  and  _29
REMARK   12  A    between atoms: _28  and  _31
REMARK   13  A    between atoms: _31  and  _32
REMARK   14  A    between atoms: _36  and  NI_250
REMARK   15  A    between atoms: _37  and  _39
REMARK   16  A    between atoms: _39  and  _40
REMARK   17  A    between atoms: _39  and  _42
REMARK   18  A    between atoms: _42  and  _43
REMARK   19  A    between atoms: _46  and  _48
REMARK   20  A    between atoms: _48  and  _49
REMARK   21  A    between atoms: _48  and  _51
REMARK   22  A    between atoms: _51  and  _52
REMARK   23  A    between atoms: _52  and  _54
REMARK   24  A    between atoms: _54  and  NI_250
REMARK   25  A    between atoms: _55  and  _57
REMARK   26  A    between atoms: _57  and  _58
REMARK   27  A    between atoms: _57  and  _60
REMARK   28  A    between atoms: _60  and  _61
REMARK   29  A    between atoms: _64  and  _66
REMARK   30  A    between atoms: _66  and  _67
REMARK   31  A    between atoms: _66  and  _69
REMARK   32  A    between atoms: _71  and  _73
REMARK   33  A    between atoms: _73  and  _74
REMARK   34  A    between atoms: _73  and  _76
REMARK   35  A    between atoms: _76  and  _77
REMARK   36  A    between atoms: _79  and  _81
REMARK   37  A    between atoms: _81  and  _82
REMARK   38  A    between atoms: _81  and  _84
REMARK   39  A    between atoms: _87  and  _89
REMARK   40  A    between atoms: _89  and  _90
REMARK   41  A    between atoms: _89  and  _92
REMARK   42  A    between atoms: _92  and  _93
REMARK   43  A    between atoms: _96  and  _98
REMARK   44  A    between atoms: _98  and  _99
REMARK   45  A    between atoms: _98  and  _101
REMARK   46  A    between atoms: _101  and  _102
REMARK   47  A    between atoms: _105  and  _107
REMARK   48  A    between atoms: _107  and  _108
REMARK   49  A    between atoms: _111  and  _113
REMARK   50  A    between atoms: _113  and  _114
REMARK   51  A    between atoms: _113  and  _116
REMARK   52  A    between atoms: _116  and  _117
REMARK   53  A    between atoms: _120  and  _122
REMARK   54  A    between atoms: _122  and  _123
REMARK   55  A    between atoms: _122  and  _125
REMARK   56  A    between atoms: _125  and  _126
REMARK   57  A    between atoms: _131  and  _132
REMARK   58  A    between atoms: _134  and  _136
REMARK   59  A    between atoms: _136  and  _137
REMARK   60  A    between atoms: _136  and  _139
REMARK   61  A    between atoms: _139  and  _140
REMARK   62  A    between atoms: _146  and  _148
REMARK   63  A    between atoms: _148  and  _149
REMARK   64  A    between atoms: _148  and  _151
REMARK   65  A    between atoms: _151  and  _152
REMARK   66  A    between atoms: _152  and  _153
REMARK   67  A    between atoms: _155  and  _157
REMARK   68  A    between atoms: _157  and  _158
REMARK   69  A    between atoms: _157  and  _160
REMARK   70  A    between atoms: _163  and  _165
REMARK   71  A    between atoms: _165  and  _166
REMARK   72  A    between atoms: _168  and  _170
REMARK   73  A    between atoms: _170  and  _171
REMARK   74  A    between atoms: _170  and  _173
REMARK   75  A    between atoms: _173  and  _174
REMARK   76  A    between atoms: _174  and  _175
REMARK   77  A    between atoms: _180  and  _182
REMARK   78  A    between atoms: _182  and  _183
REMARK   79  A    between atoms: _182  and  _185
REMARK   80  A    between atoms: _185  and  _186
REMARK   81  A    between atoms: _189  and  _191
REMARK   82  A    between atoms: _191  and  _192
REMARK   83  A    between atoms: _194  and  _196
REMARK   84  A    between atoms: _196  and  _197
REMARK   85  A    between atoms: _196  and  _199
REMARK   86  A    between atoms: _199  and  _200
REMARK   87  A    between atoms: _206  and  _208
REMARK   88  A    between atoms: _208  and  _209
REMARK   89  A    between atoms: _208  and  _211
REMARK   90  A    between atoms: _211  and  _212
REMARK   91  A    between atoms: _217  and  _218
REMARK   92  A    between atoms: _220  and  _222
REMARK   93  A    between atoms: _222  and  _223
REMARK   94  A    between atoms: _222  and  _225
REMARK   95  A    between atoms: _228  and  _230
REMARK   96  A    between atoms: _230  and  _231
REMARK   97  A    between atoms: _234  and  _236
REMARK   98  A    between atoms: _236  and  _237
REMARK   99  A    between atoms: _236  and  _239
REMARK  100  A    between atoms: _239  and  _240
REMARK                            x       y       z     vdW  Elec       q    Type
REMARK                         _______ _______ _______ _____ _____    ______ ____
ROOT
ATOM      1  O   HOH     1       9.066   8.266  46.495  0.00  0.00    +0.000 OA
ENDROOT
TORSDOF 0
REMARK  Name = ../refined-set-2016/4llj/4llj_pocket.pdb
REMARK  100 active torsions:
REMARK  status: ('A' for Active; 'I' for Inactive)
REMARK    1  A    between atoms: _1  and  _3
REMARK    2  A    between atoms: _3  and  _4
REMARK    3  A    between atoms: _3  and  _6
REMARK    4  A    between atoms: _6  and  _7
REMARK    5  A    between atoms: _12  and  _13
REMARK    6  A    between atoms: _15  and  _17
REMARK    7  A    between atoms: _17  and  _18
REMARK    8  A    between atoms: _17  and  _20
REMARK    9  A    between atoms: _20  and  _21
REMARK   10  A    between atoms: _26  and  _28
REMARK   11  A    between atoms: _28  and  _29
REMARK   12  A    between atoms: _28  and  _31
REMARK   13  A    between atoms: _31  and  _32
REMARK   14  A    between atoms: _36  and  NI_250
REMARK   15  A    between atoms: _37  and  _39
REMARK   16  A    between atoms: _39  and  _40
REMARK   17  A    between atoms: _39  and  _42
REMARK   18  A    between atoms: _42  and  _43
REMARK   19  A    between atoms: _46  and  _48
REMARK   20  A    between atoms: _48  and  _49
REMARK   21  A    between atoms: _48  and  _51
REMARK   22  A    between atoms: _51  and  _52
REMARK   23  A    between atoms: _52  and  _54
REMARK   24  A    between atoms: _54  and  NI_250
REMARK   25  A    between atoms: _55  and  _57
REMARK   26  A    between atoms: _57  and  _58
REMARK   27  A    between atoms: _57  and  _60
REMARK   28  A    between atoms: _60  and  _61
REMARK   29  A    between atoms: _64  and  _66
REMARK   30  A    between atoms: _66  and  _67
REMARK   31  A    between atoms: _66  and  _69
REMARK   32  A    between atoms: _71  and  _73
REMARK   33  A    between atoms: _73  and  _74
REMARK   34  A    between atoms: _73  and  _76
REMARK   35  A    between atoms: _76  and  _77
REMARK   36  A    between atoms: _79  and  _81
REMARK   37  A    between atoms: _81  and  _82
REMARK   38  A    between atoms: _81  and  _84
REMARK   39  A    between atoms: _87  and  _89
REMARK   40  A    between atoms: _89  and  _90
REMARK   41  A    between atoms: _89  and  _92
REMARK   42  A    between atoms: _92  and  _93
REMARK   43  A    between atoms: _96  and  _98
REMARK   44  A    between atoms: _98  and  _99
REMARK   45  A    between atoms: _98  and  _101
REMARK   46  A    between atoms: _101  and  _102
REMARK   47  A    between atoms: _105  and  _107
REMARK   48  A    between atoms: _107  and  _108
REMARK   49  A    between atoms: _111  and  _113
REMARK   50  A    between atoms: _113  and  _114
REMARK   51  A    between atoms: _113  and  _116
REMARK   52  A    between atoms: _116  and  _117
REMARK   53  A    between atoms: _120  and  _122
REMARK   54  A    between atoms: _122  and  _123
REMARK   55  A    between atoms: _122  and  _125
REMARK   56  A    between atoms: _125  and  _126
REMARK   57  A    between atoms: _131  and  _132
REMARK   58  A    between atoms: _134  and  _136
REMARK   59  A    between atoms: _136  and  _137
REMARK   60  A    between atoms: _136  and  _139
REMARK   61  A    between atoms: _139  and  _140
REMARK   62  A    between atoms: _146  and  _148
REMARK   63  A    between atoms: _148  and  _149
REMARK   64  A    between atoms: _148  and  _151
REMARK   65  A    between atoms: _151  and  _152
REMARK   66  A    between atoms: _152  and  _153
REMARK   67  A    between atoms: _155  and  _157
REMARK   68  A    between atoms: _157  and  _158
REMARK   69  A    between atoms: _157  and  _160
REMARK   70  A    between atoms: _163  and  _165
REMARK   71  A    between atoms: _165  and  _166
REMARK   72  A    between atoms: _168  and  _170
REMARK   73  A    between atoms: _170  and  _171
REMARK   74  A    between atoms: _170  and  _173
REMARK   75  A    between atoms: _173  and  _174
REMARK   76  A    between atoms: _174  and  _175
REMARK   77  A    between atoms: _180  and  _182
REMARK   78  A    between atoms: _182  and  _183
REMARK   79  A    between atoms: _182  and  _185
REMARK   80  A    between atoms: _185  and  _186
REMARK   81  A    between atoms: _189  and  _191
REMARK   82  A    between atoms: _191  and  _192
REMARK   83  A    between atoms: _194  and  _196
REMARK   84  A    between atoms: _196  and  _197
REMARK   85  A    between atoms: _196  and  _199
REMARK   86  A    between atoms: _199  and  _200
REMARK   87  A    between atoms: _206  and  _208
REMARK   88  A    between atoms: _208  and  _209
REMARK   89  A    between atoms: _208  and  _211
REMARK   90  A    between atoms: _211  and  _212
REMARK   91  A    between atoms: _217  and  _218
REMARK   92  A    between atoms: _220  and  _222
REMARK   93  A    between atoms: _222  and  _223
REMARK   94  A    between atoms: _222  and  _225
REMARK   95  A    between atoms: _228  and  _230
REMARK   96  A    between atoms: _230  and  _231
REMARK   97  A    between atoms: _234  and  _236
REMARK   98  A    between atoms: _236  and  _237
REMARK   99  A    between atoms: _236  and  _239
REMARK  100  A    between atoms: _239  and  _240
REMARK                            x       y       z     vdW  Elec       q    Type
REMARK                         _______ _______ _______ _____ _____    ______ ____
ROOT
ATOM      1  O   HOH     1      10.344   5.725  39.165  0.00  0.00    +0.000 OA
ENDROOT
TORSDOF 0
REMARK  Name = ../refined-set-2016/4llj/4llj_pocket.pdb
REMARK  100 active torsions:
REMARK  status: ('A' for Active; 'I' for Inactive)
REMARK    1  A    between atoms: _1  and  _3
REMARK    2  A    between atoms: _3  and  _4
REMARK    3  A    between atoms: _3  and  _6
REMARK    4  A    between atoms: _6  and  _7
REMARK    5  A    between atoms: _12  and  _13
REMARK    6  A    between atoms: _15  and  _17
REMARK    7  A    between atoms: _17  and  _18
REMARK    8  A    between atoms: _17  and  _20
REMARK    9  A    between atoms: _20  and  _21
REMARK   10  A    between atoms: _26  and  _28
REMARK   11  A    between atoms: _28  and  _29
REMARK   12  A    between atoms: _28  and  _31
REMARK   13  A    between atoms: _31  and  _32
REMARK   14  A    between atoms: _36  and  NI_250
REMARK   15  A    between atoms: _37  and  _39
REMARK   16  A    between atoms: _39  and  _40
REMARK   17  A    between atoms: _39  and  _42
REMARK   18  A    between atoms: _42  and  _43
REMARK   19  A    between atoms: _46  and  _48
REMARK   20  A    between atoms: _48  and  _49
REMARK   21  A    between atoms: _48  and  _51
REMARK   22  A    between atoms: _51  and  _52
REMARK   23  A    between atoms: _52  and  _54
REMARK   24  A    between atoms: _54  and  NI_250
REMARK   25  A    between atoms: _55  and  _57
REMARK   26  A    between atoms: _57  and  _58
REMARK   27  A    between atoms: _57  and  _60
REMARK   28  A    between atoms: _60  and  _61
REMARK   29  A    between atoms: _64  and  _66
REMARK   30  A    between atoms: _66  and  _67
REMARK   31  A    between atoms: _66  and  _69
REMARK   32  A    between atoms: _71  and  _73
REMARK   33  A    between atoms: _73  and  _74
REMARK   34  A    between atoms: _73  and  _76
REMARK   35  A    between atoms: _76  and  _77
REMARK   36  A    between atoms: _79  and  _81
REMARK   37  A    between atoms: _81  and  _82
REMARK   38  A    between atoms: _81  and  _84
REMARK   39  A    between atoms: _87  and  _89
REMARK   40  A    between atoms: _89  and  _90
REMARK   41  A    between atoms: _89  and  _92
REMARK   42  A    between atoms: _92  and  _93
REMARK   43  A    between atoms: _96  and  _98
REMARK   44  A    between atoms: _98  and  _99
REMARK   45  A    between atoms: _98  and  _101
REMARK   46  A    between atoms: _101  and  _102
REMARK   47  A    between atoms: _105  and  _107
REMARK   48  A    between atoms: _107  and  _108
REMARK   49  A    between atoms: _111  and  _113
REMARK   50  A    between atoms: _113  and  _114
REMARK   51  A    between atoms: _113  and  _116
REMARK   52  A    between atoms: _116  and  _117
REMARK   53  A    between atoms: _120  and  _122
REMARK   54  A    between atoms: _122  and  _123
REMARK   55  A    between atoms: _122  and  _125
REMARK   56  A    between atoms: _125  and  _126
REMARK   57  A    between atoms: _131  and  _132
REMARK   58  A    between atoms: _134  and  _136
REMARK   59  A    between atoms: _136  and  _137
REMARK   60  A    between atoms: _136  and  _139
REMARK   61  A    between atoms: _139  and  _140
REMARK   62  A    between atoms: _146  and  _148
REMARK   63  A    between atoms: _148  and  _149
REMARK   64  A    between atoms: _148  and  _151
REMARK   65  A    between atoms: _151  and  _152
REMARK   66  A    between atoms: _152  and  _153
REMARK   67  A    between atoms: _155  and  _157
REMARK   68  A    between atoms: _157  and  _158
REMARK   69  A    between atoms: _157  and  _160
REMARK   70  A    between atoms: _163  and  _165
REMARK   71  A    between atoms: _165  and  _166
REMARK   72  A    between atoms: _168  and  _170
REMARK   73  A    between atoms: _170  and  _171
REMARK   74  A    between atoms: _170  and  _173
REMARK   75  A    between atoms: _173  and  _174
REMARK   76  A    between atoms: _174  and  _175
REMARK   77  A    between atoms: _180  and  _182
REMARK   78  A    between atoms: _182  and  _183
REMARK   79  A    between atoms: _182  and  _185
REMARK   80  A    between atoms: _185  and  _186
REMARK   81  A    between atoms: _189  and  _191
REMARK   82  A    between atoms: _191  and  _192
REMARK   83  A    between atoms: _194  and  _196
REMARK   84  A    between atoms: _196  and  _197
REMARK   85  A    between atoms: _196  and  _199
REMARK   86  A    between atoms: _199  and  _200
REMARK   87  A    between atoms: _206  and  _208
REMARK   88  A    between atoms: _208  and  _209
REMARK   89  A    between atoms: _208  and  _211
REMARK   90  A    between atoms: _211  and  _212
REMARK   91  A    between atoms: _217  and  _218
REMARK   92  A    between atoms: _220  and  _222
REMARK   93  A    between atoms: _222  and  _223
REMARK   94  A    between atoms: _222  and  _225
REMARK   95  A    between atoms: _228  and  _230
REMARK   96  A    between atoms: _230  and  _231
REMARK   97  A    between atoms: _234  and  _236
REMARK   98  A    between atoms: _236  and  _237
REMARK   99  A    between atoms: _236  and  _239
REMARK  100  A    between atoms: _239  and  _240
REMARK                            x       y       z     vdW  Elec       q    Type
REMARK                         _______ _______ _______ _____ _____    ______ ____
ROOT
ATOM      1  O   HOH     1       1.471  18.035  46.982  0.00  0.00    +0.000 OA
ENDROOT
TORSDOF 0
REMARK  Name = ../refined-set-2016/4llj/4llj_pocket.pdb
REMARK  100 active torsions:
REMARK  status: ('A' for Active; 'I' for Inactive)
REMARK    1  A    between atoms: _1  and  _3
REMARK    2  A    between atoms: _3  and  _4
REMARK    3  A    between atoms: _3  and  _6
REMARK    4  A    between atoms: _6  and  _7
REMARK    5  A    between atoms: _12  and  _13
REMARK    6  A    between atoms: _15  and  _17
REMARK    7  A    between atoms: _17  and  _18
REMARK    8  A    between atoms: _17  and  _20
REMARK    9  A    between atoms: _20  and  _21
REMARK   10  A    between atoms: _26  and  _28
REMARK   11  A    between atoms: _28  and  _29
REMARK   12  A    between atoms: _28  and  _31
REMARK   13  A    between atoms: _31  and  _32
REMARK   14  A    between atoms: _36  and  NI_250
REMARK   15  A    between atoms: _37  and  _39
REMARK   16  A    between atoms: _39  and  _40
REMARK   17  A    between atoms: _39  and  _42
REMARK   18  A    between atoms: _42  and  _43
REMARK   19  A    between atoms: _46  and  _48
REMARK   20  A    between atoms: _48  and  _49
REMARK   21  A    between atoms: _48  and  _51
REMARK   22  A    between atoms: _51  and  _52
REMARK   23  A    between atoms: _52  and  _54
REMARK   24  A    between atoms: _54  and  NI_250
REMARK   25  A    between atoms: _55  and  _57
REMARK   26  A    between atoms: _57  and  _58
REMARK   27  A    between atoms: _57  and  _60
REMARK   28  A    between atoms: _60  and  _61
REMARK   29  A    between atoms: _64  and  _66
REMARK   30  A    between atoms: _66  and  _67
REMARK   31  A    between atoms: _66  and  _69
REMARK   32  A    between atoms: _71  and  _73
REMARK   33  A    between atoms: _73  and  _74
REMARK   34  A    between atoms: _73  and  _76
REMARK   35  A    between atoms: _76  and  _77
REMARK   36  A    between atoms: _79  and  _81
REMARK   37  A    between atoms: _81  and  _82
REMARK   38  A    between atoms: _81  and  _84
REMARK   39  A    between atoms: _87  and  _89
REMARK   40  A    between atoms: _89  and  _90
REMARK   41  A    between atoms: _89  and  _92
REMARK   42  A    between atoms: _92  and  _93
REMARK   43  A    between atoms: _96  and  _98
REMARK   44  A    between atoms: _98  and  _99
REMARK   45  A    between atoms: _98  and  _101
REMARK   46  A    between atoms: _101  and  _102
REMARK   47  A    between atoms: _105  and  _107
REMARK   48  A    between atoms: _107  and  _108
REMARK   49  A    between atoms: _111  and  _113
REMARK   50  A    between atoms: _113  and  _114
REMARK   51  A    between atoms: _113  and  _116
REMARK   52  A    between atoms: _116  and  _117
REMARK   53  A    between atoms: _120  and  _122
REMARK   54  A    between atoms: _122  and  _123
REMARK   55  A    between atoms: _122  and  _125
REMARK   56  A    between atoms: _125  and  _126
REMARK   57  A    between atoms: _131  and  _132
REMARK   58  A    between atoms: _134  and  _136
REMARK   59  A    between atoms: _136  and  _137
REMARK   60  A    between atoms: _136  and  _139
REMARK   61  A    between atoms: _139  and  _140
REMARK   62  A    between atoms: _146  and  _148
REMARK   63  A    between atoms: _148  and  _149
REMARK   64  A    between atoms: _148  and  _151
REMARK   65  A    between atoms: _151  and  _152
REMARK   66  A    between atoms: _152  and  _153
REMARK   67  A    between atoms: _155  and  _157
REMARK   68  A    between atoms: _157  and  _158
REMARK   69  A    between atoms: _157  and  _160
REMARK   70  A    between atoms: _163  and  _165
REMARK   71  A    between atoms: _165  and  _166
REMARK   72  A    between atoms: _168  and  _170
REMARK   73  A    between atoms: _170  and  _171
REMARK   74  A    between atoms: _170  and  _173
REMARK   75  A    between atoms: _173  and  _174
REMARK   76  A    between atoms: _174  and  _175
REMARK   77  A    between atoms: _180  and  _182
REMARK   78  A    between atoms: _182  and  _183
REMARK   79  A    between atoms: _182  and  _185
REMARK   80  A    between atoms: _185  and  _186
REMARK   81  A    between atoms: _189  and  _191
REMARK   82  A    between atoms: _191  and  _192
REMARK   83  A    between atoms: _194  and  _196
REMARK   84  A    between atoms: _196  and  _197
REMARK   85  A    between atoms: _196  and  _199
REMARK   86  A    between atoms: _199  and  _200
REMARK   87  A    between atoms: _206  and  _208
REMARK   88  A    between atoms: _208  and  _209
REMARK   89  A    between atoms: _208  and  _211
REMARK   90  A    between atoms: _211  and  _212
REMARK   91  A    between atoms: _217  and  _218
REMARK   92  A    between atoms: _220  and  _222
REMARK   93  A    between atoms: _222  and  _223
REMARK   94  A    between atoms: _222  and  _225
REMARK   95  A    between atoms: _228  and  _230
REMARK   96  A    between atoms: _230  and  _231
REMARK   97  A    between atoms: _234  and  _236
REMARK   98  A    between atoms: _236  and  _237
REMARK   99  A    between atoms: _236  and  _239
REMARK  100  A    between atoms: _239  and  _240
REMARK                            x       y       z     vdW  Elec       q    Type
REMARK                         _______ _______ _______ _____ _____    ______ ____
ROOT
ATOM      1  O   HOH     1       5.777  11.466  50.607  0.00  0.00    +0.000 OA
ENDROOT
TORSDOF 0
REMARK  Name = ../refined-set-2016/4llj/4llj_pocket.pdb
REMARK  100 active torsions:
REMARK  status: ('A' for Active; 'I' for Inactive)
REMARK    1  A    between atoms: _1  and  _3
REMARK    2  A    between atoms: _3  and  _4
REMARK    3  A    between atoms: _3  and  _6
REMARK    4  A    between atoms: _6  and  _7
REMARK    5  A    between atoms: _12  and  _13
REMARK    6  A    between atoms: _15  and  _17
REMARK    7  A    between atoms: _17  and  _18
REMARK    8  A    between atoms: _17  and  _20
REMARK    9  A    between atoms: _20  and  _21
REMARK   10  A    between atoms: _26  and  _28
REMARK   11  A    between atoms: _28  and  _29
REMARK   12  A    between atoms: _28  and  _31
REMARK   13  A    between atoms: _31  and  _32
REMARK   14  A    between atoms: _36  and  NI_250
REMARK   15  A    between atoms: _37  and  _39
REMARK   16  A    between atoms: _39  and  _40
REMARK   17  A    between atoms: _39  and  _42
REMARK   18  A    between atoms: _42  and  _43
REMARK   19  A    between atoms: _46  and  _48
REMARK   20  A    between atoms: _48  and  _49
REMARK   21  A    between atoms: _48  and  _51
REMARK   22  A    between atoms: _51  and  _52
REMARK   23  A    between atoms: _52  and  _54
REMARK   24  A    between atoms: _54  and  NI_250
REMARK   25  A    between atoms: _55  and  _57
REMARK   26  A    between atoms: _57  and  _58
REMARK   27  A    between atoms: _57  and  _60
REMARK   28  A    between atoms: _60  and  _61
REMARK   29  A    between atoms: _64  and  _66
REMARK   30  A    between atoms: _66  and  _67
REMARK   31  A    between atoms: _66  and  _69
REMARK   32  A    between atoms: _71  and  _73
REMARK   33  A    between atoms: _73  and  _74
REMARK   34  A    between atoms: _73  and  _76
REMARK   35  A    between atoms: _76  and  _77
REMARK   36  A    between atoms: _79  and  _81
REMARK   37  A    between atoms: _81  and  _82
REMARK   38  A    between atoms: _81  and  _84
REMARK   39  A    between atoms: _87  and  _89
REMARK   40  A    between atoms: _89  and  _90
REMARK   41  A    between atoms: _89  and  _92
REMARK   42  A    between atoms: _92  and  _93
REMARK   43  A    between atoms: _96  and  _98
REMARK   44  A    between atoms: _98  and  _99
REMARK   45  A    between atoms: _98  and  _101
REMARK   46  A    between atoms: _101  and  _102
REMARK   47  A    between atoms: _105  and  _107
REMARK   48  A    between atoms: _107  and  _108
REMARK   49  A    between atoms: _111  and  _113
REMARK   50  A    between atoms: _113  and  _114
REMARK   51  A    between atoms: _113  and  _116
REMARK   52  A    between atoms: _116  and  _117
REMARK   53  A    between atoms: _120  and  _122
REMARK   54  A    between atoms: _122  and  _123
REMARK   55  A    between atoms: _122  and  _125
REMARK   56  A    between atoms: _125  and  _126
REMARK   57  A    between atoms: _131  and  _132
REMARK   58  A    between atoms: _134  and  _136
REMARK   59  A    between atoms: _136  and  _137
REMARK   60  A    between atoms: _136  and  _139
REMARK   61  A    between atoms: _139  and  _140
REMARK   62  A    between atoms: _146  and  _148
REMARK   63  A    between atoms: _148  and  _149
REMARK   64  A    between atoms: _148  and  _151
REMARK   65  A    between atoms: _151  and  _152
REMARK   66  A    between atoms: _152  and  _153
REMARK   67  A    between atoms: _155  and  _157
REMARK   68  A    between atoms: _157  and  _158
REMARK   69  A    between atoms: _157  and  _160
REMARK   70  A    between atoms: _163  and  _165
REMARK   71  A    between atoms: _165  and  _166
REMARK   72  A    between atoms: _168  and  _170
REMARK   73  A    between atoms: _170  and  _171
REMARK   74  A    between atoms: _170  and  _173
REMARK   75  A    between atoms: _173  and  _174
REMARK   76  A    between atoms: _174  and  _175
REMARK   77  A    between atoms: _180  and  _182
REMARK   78  A    between atoms: _182  and  _183
REMARK   79  A    between atoms: _182  and  _185
REMARK   80  A    between atoms: _185  and  _186
REMARK   81  A    between atoms: _189  and  _191
REMARK   82  A    between atoms: _191  and  _192
REMARK   83  A    between atoms: _194  and  _196
REMARK   84  A    between atoms: _196  and  _197
REMARK   85  A    between atoms: _196  and  _199
REMARK   86  A    between atoms: _199  and  _200
REMARK   87  A    between atoms: _206  and  _208
REMARK   88  A    between atoms: _208  and  _209
REMARK   89  A    between atoms: _208  and  _211
REMARK   90  A    between atoms: _211  and  _212
REMARK   91  A    between atoms: _217  and  _218
REMARK   92  A    between atoms: _220  and  _222
REMARK   93  A    between atoms: _222  and  _223
REMARK   94  A    between atoms: _222  and  _225
REMARK   95  A    between atoms: _228  and  _230
REMARK   96  A    between atoms: _230  and  _231
REMARK   97  A    between atoms: _234  and  _236
REMARK   98  A    between atoms: _236  and  _237
REMARK   99  A    between atoms: _236  and  _239
REMARK  100  A    between atoms: _239  and  _240
REMARK                            x       y       z     vdW  Elec       q    Type
REMARK                         _______ _______ _______ _____ _____    ______ ____
ROOT
ATOM      1  O   HOH     1       3.898  17.200  48.464  0.00  0.00    +0.000 OA
ENDROOT
TORSDOF 0
REMARK  Name = ../refined-set-2016/4llj/4llj_pocket.pdb
REMARK  100 active torsions:
REMARK  status: ('A' for Active; 'I' for Inactive)
REMARK    1  A    between atoms: _1  and  _3
REMARK    2  A    between atoms: _3  and  _4
REMARK    3  A    between atoms: _3  and  _6
REMARK    4  A    between atoms: _6  and  _7
REMARK    5  A    between atoms: _12  and  _13
REMARK    6  A    between atoms: _15  and  _17
REMARK    7  A    between atoms: _17  and  _18
REMARK    8  A    between atoms: _17  and  _20
REMARK    9  A    between atoms: _20  and  _21
REMARK   10  A    between atoms: _26  and  _28
REMARK   11  A    between atoms: _28  and  _29
REMARK   12  A    between atoms: _28  and  _31
REMARK   13  A    between atoms: _31  and  _32
REMARK   14  A    between atoms: _36  and  NI_250
REMARK   15  A    between atoms: _37  and  _39
REMARK   16  A    between atoms: _39  and  _40
REMARK   17  A    between atoms: _39  and  _42
REMARK   18  A    between atoms: _42  and  _43
REMARK   19  A    between atoms: _46  and  _48
REMARK   20  A    between atoms: _48  and  _49
REMARK   21  A    between atoms: _48  and  _51
REMARK   22  A    between atoms: _51  and  _52
REMARK   23  A    between atoms: _52  and  _54
REMARK   24  A    between atoms: _54  and  NI_250
REMARK   25  A    between atoms: _55  and  _57
REMARK   26  A    between atoms: _57  and  _58
REMARK   27  A    between atoms: _57  and  _60
REMARK   28  A    between atoms: _60  and  _61
REMARK   29  A    between atoms: _64  and  _66
REMARK   30  A    between atoms: _66  and  _67
REMARK   31  A    between atoms: _66  and  _69
REMARK   32  A    between atoms: _71  and  _73
REMARK   33  A    between atoms: _73  and  _74
REMARK   34  A    between atoms: _73  and  _76
REMARK   35  A    between atoms: _76  and  _77
REMARK   36  A    between atoms: _79  and  _81
REMARK   37  A    between atoms: _81  and  _82
REMARK   38  A    between atoms: _81  and  _84
REMARK   39  A    between atoms: _87  and  _89
REMARK   40  A    between atoms: _89  and  _90
REMARK   41  A    between atoms: _89  and  _92
REMARK   42  A    between atoms: _92  and  _93
REMARK   43  A    between atoms: _96  and  _98
REMARK   44  A    between atoms: _98  and  _99
REMARK   45  A    between atoms: _98  and  _101
REMARK   46  A    between atoms: _101  and  _102
REMARK   47  A    between atoms: _105  and  _107
REMARK   48  A    between atoms: _107  and  _108
REMARK   49  A    between atoms: _111  and  _113
REMARK   50  A    between atoms: _113  and  _114
REMARK   51  A    between atoms: _113  and  _116
REMARK   52  A    between atoms: _116  and  _117
REMARK   53  A    between atoms: _120  and  _122
REMARK   54  A    between atoms: _122  and  _123
REMARK   55  A    between atoms: _122  and  _125
REMARK   56  A    between atoms: _125  and  _126
REMARK   57  A    between atoms: _131  and  _132
REMARK   58  A    between atoms: _134  and  _136
REMARK   59  A    between atoms: _136  and  _137
REMARK   60  A    between atoms: _136  and  _139
REMARK   61  A    between atoms: _139  and  _140
REMARK   62  A    between atoms: _146  and  _148
REMARK   63  A    between atoms: _148  and  _149
REMARK   64  A    between atoms: _148  and  _151
REMARK   65  A    between atoms: _151  and  _152
REMARK   66  A    between atoms: _152  and  _153
REMARK   67  A    between atoms: _155  and  _157
REMARK   68  A    between atoms: _157  and  _158
REMARK   69  A    between atoms: _157  and  _160
REMARK   70  A    between atoms: _163  and  _165
REMARK   71  A    between atoms: _165  and  _166
REMARK   72  A    between atoms: _168  and  _170
REMARK   73  A    between atoms: _170  and  _171
REMARK   74  A    between atoms: _170  and  _173
REMARK   75  A    between atoms: _173  and  _174
REMARK   76  A    between atoms: _174  and  _175
REMARK   77  A    between atoms: _180  and  _182
REMARK   78  A    between atoms: _182  and  _183
REMARK   79  A    between atoms: _182  and  _185
REMARK   80  A    between atoms: _185  and  _186
REMARK   81  A    between atoms: _189  and  _191
REMARK   82  A    between atoms: _191  and  _192
REMARK   83  A    between atoms: _194  and  _196
REMARK   84  A    between atoms: _196  and  _197
REMARK   85  A    between atoms: _196  and  _199
REMARK   86  A    between atoms: _199  and  _200
REMARK   87  A    between atoms: _206  and  _208
REMARK   88  A    between atoms: _208  and  _209
REMARK   89  A    between atoms: _208  and  _211
REMARK   90  A    between atoms: _211  and  _212
REMARK   91  A    between atoms: _217  and  _218
REMARK   92  A    between atoms: _220  and  _222
REMARK   93  A    between atoms: _222  and  _223
REMARK   94  A    between atoms: _222  and  _225
REMARK   95  A    between atoms: _228  and  _230
REMARK   96  A    between atoms: _230  and  _231
REMARK   97  A    between atoms: _234  and  _236
REMARK   98  A    between atoms: _236  and  _237
REMARK   99  A    between atoms: _236  and  _239
REMARK  100  A    between atoms: _239  and  _240
REMARK                            x       y       z     vdW  Elec       q    Type
REMARK                         _______ _______ _______ _____ _____    ______ ____
ROOT
ATOM      1  O   HOH     1      11.569   6.837  41.624  0.00  0.00    +0.000 OA
ENDROOT
TORSDOF 0
REMARK  Name = ../refined-set-2016/4llj/4llj_pocket.pdb
REMARK  100 active torsions:
REMARK  status: ('A' for Active; 'I' for Inactive)
REMARK    1  A    between atoms: _1  and  _3
REMARK    2  A    between atoms: _3  and  _4
REMARK    3  A    between atoms: _3  and  _6
REMARK    4  A    between atoms: _6  and  _7
REMARK    5  A    between atoms: _12  and  _13
REMARK    6  A    between atoms: _15  and  _17
REMARK    7  A    between atoms: _17  and  _18
REMARK    8  A    between atoms: _17  and  _20
REMARK    9  A    between atoms: _20  and  _21
REMARK   10  A    between atoms: _26  and  _28
REMARK   11  A    between atoms: _28  and  _29
REMARK   12  A    between atoms: _28  and  _31
REMARK   13  A    between atoms: _31  and  _32
REMARK   14  A    between atoms: _36  and  NI_250
REMARK   15  A    between atoms: _37  and  _39
REMARK   16  A    between atoms: _39  and  _40
REMARK   17  A    between atoms: _39  and  _42
REMARK   18  A    between atoms: _42  and  _43
REMARK   19  A    between atoms: _46  and  _48
REMARK   20  A    between atoms: _48  and  _49
REMARK   21  A    between atoms: _48  and  _51
REMARK   22  A    between atoms: _51  and  _52
REMARK   23  A    between atoms: _52  and  _54
REMARK   24  A    between atoms: _54  and  NI_250
REMARK   25  A    between atoms: _55  and  _57
REMARK   26  A    between atoms: _57  and  _58
REMARK   27  A    between atoms: _57  and  _60
REMARK   28  A    between atoms: _60  and  _61
REMARK   29  A    between atoms: _64  and  _66
REMARK   30  A    between atoms: _66  and  _67
REMARK   31  A    between atoms: _66  and  _69
REMARK   32  A    between atoms: _71  and  _73
REMARK   33  A    between atoms: _73  and  _74
REMARK   34  A    between atoms: _73  and  _76
REMARK   35  A    between atoms: _76  and  _77
REMARK   36  A    between atoms: _79  and  _81
REMARK   37  A    between atoms: _81  and  _82
REMARK   38  A    between atoms: _81  and  _84
REMARK   39  A    between atoms: _87  and  _89
REMARK   40  A    between atoms: _89  and  _90
REMARK   41  A    between atoms: _89  and  _92
REMARK   42  A    between atoms: _92  and  _93
REMARK   43  A    between atoms: _96  and  _98
REMARK   44  A    between atoms: _98  and  _99
REMARK   45  A    between atoms: _98  and  _101
REMARK   46  A    between atoms: _101  and  _102
REMARK   47  A    between atoms: _105  and  _107
REMARK   48  A    between atoms: _107  and  _108
REMARK   49  A    between atoms: _111  and  _113
REMARK   50  A    between atoms: _113  and  _114
REMARK   51  A    between atoms: _113  and  _116
REMARK   52  A    between atoms: _116  and  _117
REMARK   53  A    between atoms: _120  and  _122
REMARK   54  A    between atoms: _122  and  _123
REMARK   55  A    between atoms: _122  and  _125
REMARK   56  A    between atoms: _125  and  _126
REMARK   57  A    between atoms: _131  and  _132
REMARK   58  A    between atoms: _134  and  _136
REMARK   59  A    between atoms: _136  and  _137
REMARK   60  A    between atoms: _136  and  _139
REMARK   61  A    between atoms: _139  and  _140
REMARK   62  A    between atoms: _146  and  _148
REMARK   63  A    between atoms: _148  and  _149
REMARK   64  A    between atoms: _148  and  _151
REMARK   65  A    between atoms: _151  and  _152
REMARK   66  A    between atoms: _152  and  _153
REMARK   67  A    between atoms: _155  and  _157
REMARK   68  A    between atoms: _157  and  _158
REMARK   69  A    between atoms: _157  and  _160
REMARK   70  A    between atoms: _163  and  _165
REMARK   71  A    between atoms: _165  and  _166
REMARK   72  A    between atoms: _168  and  _170
REMARK   73  A    between atoms: _170  and  _171
REMARK   74  A    between atoms: _170  and  _173
REMARK   75  A    between atoms: _173  and  _174
REMARK   76  A    between atoms: _174  and  _175
REMARK   77  A    between atoms: _180  and  _182
REMARK   78  A    between atoms: _182  and  _183
REMARK   79  A    between atoms: _182  and  _185
REMARK   80  A    between atoms: _185  and  _186
REMARK   81  A    between atoms: _189  and  _191
REMARK   82  A    between atoms: _191  and  _192
REMARK   83  A    between atoms: _194  and  _196
REMARK   84  A    between atoms: _196  and  _197
REMARK   85  A    between atoms: _196  and  _199
REMARK   86  A    between atoms: _199  and  _200
REMARK   87  A    between atoms: _206  and  _208
REMARK   88  A    between atoms: _208  and  _209
REMARK   89  A    between atoms: _208  and  _211
REMARK   90  A    between atoms: _211  and  _212
REMARK   91  A    between atoms: _217  and  _218
REMARK   92  A    between atoms: _220  and  _222
REMARK   93  A    between atoms: _222  and  _223
REMARK   94  A    between atoms: _222  and  _225
REMARK   95  A    between atoms: _228  and  _230
REMARK   96  A    between atoms: _230  and  _231
REMARK   97  A    between atoms: _234  and  _236
REMARK   98  A    between atoms: _236  and  _237
REMARK   99  A    between atoms: _236  and  _239
REMARK  100  A    between atoms: _239  and  _240
REMARK                            x       y       z     vdW  Elec       q    Type
REMARK                         _______ _______ _______ _____ _____    ______ ____
ROOT
ATOM      1  O   HOH     1      13.107  11.212  40.953  0.00  0.00    +0.000 OA
ENDROOT
TORSDOF 0
REMARK  Name = ../refined-set-2016/4llj/4llj_pocket.pdb
REMARK  100 active torsions:
REMARK  status: ('A' for Active; 'I' for Inactive)
REMARK    1  A    between atoms: _1  and  _3
REMARK    2  A    between atoms: _3  and  _4
REMARK    3  A    between atoms: _3  and  _6
REMARK    4  A    between atoms: _6  and  _7
REMARK    5  A    between atoms: _12  and  _13
REMARK    6  A    between atoms: _15  and  _17
REMARK    7  A    between atoms: _17  and  _18
REMARK    8  A    between atoms: _17  and  _20
REMARK    9  A    between atoms: _20  and  _21
REMARK   10  A    between atoms: _26  and  _28
REMARK   11  A    between atoms: _28  and  _29
REMARK   12  A    between atoms: _28  and  _31
REMARK   13  A    between atoms: _31  and  _32
REMARK   14  A    between atoms: _36  and  NI_250
REMARK   15  A    between atoms: _37  and  _39
REMARK   16  A    between atoms: _39  and  _40
REMARK   17  A    between atoms: _39  and  _42
REMARK   18  A    between atoms: _42  and  _43
REMARK   19  A    between atoms: _46  and  _48
REMARK   20  A    between atoms: _48  and  _49
REMARK   21  A    between atoms: _48  and  _51
REMARK   22  A    between atoms: _51  and  _52
REMARK   23  A    between atoms: _52  and  _54
REMARK   24  A    between atoms: _54  and  NI_250
REMARK   25  A    between atoms: _55  and  _57
REMARK   26  A    between atoms: _57  and  _58
REMARK   27  A    between atoms: _57  and  _60
REMARK   28  A    between atoms: _60  and  _61
REMARK   29  A    between atoms: _64  and  _66
REMARK   30  A    between atoms: _66  and  _67
REMARK   31  A    between atoms: _66  and  _69
REMARK   32  A    between atoms: _71  and  _73
REMARK   33  A    between atoms: _73  and  _74
REMARK   34  A    between atoms: _73  and  _76
REMARK   35  A    between atoms: _76  and  _77
REMARK   36  A    between atoms: _79  and  _81
REMARK   37  A    between atoms: _81  and  _82
REMARK   38  A    between atoms: _81  and  _84
REMARK   39  A    between atoms: _87  and  _89
REMARK   40  A    between atoms: _89  and  _90
REMARK   41  A    between atoms: _89  and  _92
REMARK   42  A    between atoms: _92  and  _93
REMARK   43  A    between atoms: _96  and  _98
REMARK   44  A    between atoms: _98  and  _99
REMARK   45  A    between atoms: _98  and  _101
REMARK   46  A    between atoms: _101  and  _102
REMARK   47  A    between atoms: _105  and  _107
REMARK   48  A    between atoms: _107  and  _108
REMARK   49  A    between atoms: _111  and  _113
REMARK   50  A    between atoms: _113  and  _114
REMARK   51  A    between atoms: _113  and  _116
REMARK   52  A    between atoms: _116  and  _117
REMARK   53  A    between atoms: _120  and  _122
REMARK   54  A    between atoms: _122  and  _123
REMARK   55  A    between atoms: _122  and  _125
REMARK   56  A    between atoms: _125  and  _126
REMARK   57  A    between atoms: _131  and  _132
REMARK   58  A    between atoms: _134  and  _136
REMARK   59  A    between atoms: _136  and  _137
REMARK   60  A    between atoms: _136  and  _139
REMARK   61  A    between atoms: _139  and  _140
REMARK   62  A    between atoms: _146  and  _148
REMARK   63  A    between atoms: _148  and  _149
REMARK   64  A    between atoms: _148  and  _151
REMARK   65  A    between atoms: _151  and  _152
REMARK   66  A    between atoms: _152  and  _153
REMARK   67  A    between atoms: _155  and  _157
REMARK   68  A    between atoms: _157  and  _158
REMARK   69  A    between atoms: _157  and  _160
REMARK   70  A    between atoms: _163  and  _165
REMARK   71  A    between atoms: _165  and  _166
REMARK   72  A    between atoms: _168  and  _170
REMARK   73  A    between atoms: _170  and  _171
REMARK   74  A    between atoms: _170  and  _173
REMARK   75  A    between atoms: _173  and  _174
REMARK   76  A    between atoms: _174  and  _175
REMARK   77  A    between atoms: _180  and  _182
REMARK   78  A    between atoms: _182  and  _183
REMARK   79  A    between atoms: _182  and  _185
REMARK   80  A    between atoms: _185  and  _186
REMARK   81  A    between atoms: _189  and  _191
REMARK   82  A    between atoms: _191  and  _192
REMARK   83  A    between atoms: _194  and  _196
REMARK   84  A    between atoms: _196  and  _197
REMARK   85  A    between atoms: _196  and  _199
REMARK   86  A    between atoms: _199  and  _200
REMARK   87  A    between atoms: _206  and  _208
REMARK   88  A    between atoms: _208  and  _209
REMARK   89  A    between atoms: _208  and  _211
REMARK   90  A    between atoms: _211  and  _212
REMARK   91  A    between atoms: _217  and  _218
REMARK   92  A    between atoms: _220  and  _222
REMARK   93  A    between atoms: _222  and  _223
REMARK   94  A    between atoms: _222  and  _225
REMARK   95  A    between atoms: _228  and  _230
REMARK   96  A    between atoms: _230  and  _231
REMARK   97  A    between atoms: _234  and  _236
REMARK   98  A    between atoms: _236  and  _237
REMARK   99  A    between atoms: _236  and  _239
REMARK  100  A    between atoms: _239  and  _240
REMARK                            x       y       z     vdW  Elec       q    Type
REMARK                         _______ _______ _______ _____ _____    ______ ____
ROOT
ATOM      1  O   HOH     1       8.322  12.173  51.720  0.00  0.00    +0.000 OA
ENDROOT
TORSDOF 0
REMARK  Name = ../refined-set-2016/4llj/4llj_pocket.pdb
REMARK  100 active torsions:
REMARK  status: ('A' for Active; 'I' for Inactive)
REMARK    1  A    between atoms: _1  and  _3
REMARK    2  A    between atoms: _3  and  _4
REMARK    3  A    between atoms: _3  and  _6
REMARK    4  A    between atoms: _6  and  _7
REMARK    5  A    between atoms: _12  and  _13
REMARK    6  A    between atoms: _15  and  _17
REMARK    7  A    between atoms: _17  and  _18
REMARK    8  A    between atoms: _17  and  _20
REMARK    9  A    between atoms: _20  and  _21
REMARK   10  A    between atoms: _26  and  _28
REMARK   11  A    between atoms: _28  and  _29
REMARK   12  A    between atoms: _28  and  _31
REMARK   13  A    between atoms: _31  and  _32
REMARK   14  A    between atoms: _36  and  NI_250
REMARK   15  A    between atoms: _37  and  _39
REMARK   16  A    between atoms: _39  and  _40
REMARK   17  A    between atoms: _39  and  _42
REMARK   18  A    between atoms: _42  and  _43
REMARK   19  A    between atoms: _46  and  _48
REMARK   20  A    between atoms: _48  and  _49
REMARK   21  A    between atoms: _48  and  _51
REMARK   22  A    between atoms: _51  and  _52
REMARK   23  A    between atoms: _52  and  _54
REMARK   24  A    between atoms: _54  and  NI_250
REMARK   25  A    between atoms: _55  and  _57
REMARK   26  A    between atoms: _57  and  _58
REMARK   27  A    between atoms: _57  and  _60
REMARK   28  A    between atoms: _60  and  _61
REMARK   29  A    between atoms: _64  and  _66
REMARK   30  A    between atoms: _66  and  _67
REMARK   31  A    between atoms: _66  and  _69
REMARK   32  A    between atoms: _71  and  _73
REMARK   33  A    between atoms: _73  and  _74
REMARK   34  A    between atoms: _73  and  _76
REMARK   35  A    between atoms: _76  and  _77
REMARK   36  A    between atoms: _79  and  _81
REMARK   37  A    between atoms: _81  and  _82
REMARK   38  A    between atoms: _81  and  _84
REMARK   39  A    between atoms: _87  and  _89
REMARK   40  A    between atoms: _89  and  _90
REMARK   41  A    between atoms: _89  and  _92
REMARK   42  A    between atoms: _92  and  _93
REMARK   43  A    between atoms: _96  and  _98
REMARK   44  A    between atoms: _98  and  _99
REMARK   45  A    between atoms: _98  and  _101
REMARK   46  A    between atoms: _101  and  _102
REMARK   47  A    between atoms: _105  and  _107
REMARK   48  A    between atoms: _107  and  _108
REMARK   49  A    between atoms: _111  and  _113
REMARK   50  A    between atoms: _113  and  _114
REMARK   51  A    between atoms: _113  and  _116
REMARK   52  A    between atoms: _116  and  _117
REMARK   53  A    between atoms: _120  and  _122
REMARK   54  A    between atoms: _122  and  _123
REMARK   55  A    between atoms: _122  and  _125
REMARK   56  A    between atoms: _125  and  _126
REMARK   57  A    between atoms: _131  and  _132
REMARK   58  A    between atoms: _134  and  _136
REMARK   59  A    between atoms: _136  and  _137
REMARK   60  A    between atoms: _136  and  _139
REMARK   61  A    between atoms: _139  and  _140
REMARK   62  A    between atoms: _146  and  _148
REMARK   63  A    between atoms: _148  and  _149
REMARK   64  A    between atoms: _148  and  _151
REMARK   65  A    between atoms: _151  and  _152
REMARK   66  A    between atoms: _152  and  _153
REMARK   67  A    between atoms: _155  and  _157
REMARK   68  A    between atoms: _157  and  _158
REMARK   69  A    between atoms: _157  and  _160
REMARK   70  A    between atoms: _163  and  _165
REMARK   71  A    between atoms: _165  and  _166
REMARK   72  A    between atoms: _168  and  _170
REMARK   73  A    between atoms: _170  and  _171
REMARK   74  A    between atoms: _170  and  _173
REMARK   75  A    between atoms: _173  and  _174
REMARK   76  A    between atoms: _174  and  _175
REMARK   77  A    between atoms: _180  and  _182
REMARK   78  A    between atoms: _182  and  _183
REMARK   79  A    between atoms: _182  and  _185
REMARK   80  A    between atoms: _185  and  _186
REMARK   81  A    between atoms: _189  and  _191
REMARK   82  A    between atoms: _191  and  _192
REMARK   83  A    between atoms: _194  and  _196
REMARK   84  A    between atoms: _196  and  _197
REMARK   85  A    between atoms: _196  and  _199
REMARK   86  A    between atoms: _199  and  _200
REMARK   87  A    between atoms: _206  and  _208
REMARK   88  A    between atoms: _208  and  _209
REMARK   89  A    between atoms: _208  and  _211
REMARK   90  A    between atoms: _211  and  _212
REMARK   91  A    between atoms: _217  and  _218
REMARK   92  A    between atoms: _220  and  _222
REMARK   93  A    between atoms: _222  and  _223
REMARK   94  A    between atoms: _222  and  _225
REMARK   95  A    between atoms: _228  and  _230
REMARK   96  A    between atoms: _230  and  _231
REMARK   97  A    between atoms: _234  and  _236
REMARK   98  A    between atoms: _236  and  _237
REMARK   99  A    between atoms: _236  and  _239
REMARK  100  A    between atoms: _239  and  _240
REMARK                            x       y       z     vdW  Elec       q    Type
REMARK                         _______ _______ _______ _____ _____    ______ ____
ROOT
ATOM      1  O   HOH     1       4.704   4.279  45.902  0.00  0.00    +0.000 OA
ENDROOT
TORSDOF 0
REMARK  Name = ../refined-set-2016/4llj/4llj_pocket.pdb
REMARK  100 active torsions:
REMARK  status: ('A' for Active; 'I' for Inactive)
REMARK    1  A    between atoms: _1  and  _3
REMARK    2  A    between atoms: _3  and  _4
REMARK    3  A    between atoms: _3  and  _6
REMARK    4  A    between atoms: _6  and  _7
REMARK    5  A    between atoms: _12  and  _13
REMARK    6  A    between atoms: _15  and  _17
REMARK    7  A    between atoms: _17  and  _18
REMARK    8  A    between atoms: _17  and  _20
REMARK    9  A    between atoms: _20  and  _21
REMARK   10  A    between atoms: _26  and  _28
REMARK   11  A    between atoms: _28  and  _29
REMARK   12  A    between atoms: _28  and  _31
REMARK   13  A    between atoms: _31  and  _32
REMARK   14  A    between atoms: _36  and  NI_250
REMARK   15  A    between atoms: _37  and  _39
REMARK   16  A    between atoms: _39  and  _40
REMARK   17  A    between atoms: _39  and  _42
REMARK   18  A    between atoms: _42  and  _43
REMARK   19  A    between atoms: _46  and  _48
REMARK   20  A    between atoms: _48  and  _49
REMARK   21  A    between atoms: _48  and  _51
REMARK   22  A    between atoms: _51  and  _52
REMARK   23  A    between atoms: _52  and  _54
REMARK   24  A    between atoms: _54  and  NI_250
REMARK   25  A    between atoms: _55  and  _57
REMARK   26  A    between atoms: _57  and  _58
REMARK   27  A    between atoms: _57  and  _60
REMARK   28  A    between atoms: _60  and  _61
REMARK   29  A    between atoms: _64  and  _66
REMARK   30  A    between atoms: _66  and  _67
REMARK   31  A    between atoms: _66  and  _69
REMARK   32  A    between atoms: _71  and  _73
REMARK   33  A    between atoms: _73  and  _74
REMARK   34  A    between atoms: _73  and  _76
REMARK   35  A    between atoms: _76  and  _77
REMARK   36  A    between atoms: _79  and  _81
REMARK   37  A    between atoms: _81  and  _82
REMARK   38  A    between atoms: _81  and  _84
REMARK   39  A    between atoms: _87  and  _89
REMARK   40  A    between atoms: _89  and  _90
REMARK   41  A    between atoms: _89  and  _92
REMARK   42  A    between atoms: _92  and  _93
REMARK   43  A    between atoms: _96  and  _98
REMARK   44  A    between atoms: _98  and  _99
REMARK   45  A    between atoms: _98  and  _101
REMARK   46  A    between atoms: _101  and  _102
REMARK   47  A    between atoms: _105  and  _107
REMARK   48  A    between atoms: _107  and  _108
REMARK   49  A    between atoms: _111  and  _113
REMARK   50  A    between atoms: _113  and  _114
REMARK   51  A    between atoms: _113  and  _116
REMARK   52  A    between atoms: _116  and  _117
REMARK   53  A    between atoms: _120  and  _122
REMARK   54  A    between atoms: _122  and  _123
REMARK   55  A    between atoms: _122  and  _125
REMARK   56  A    between atoms: _125  and  _126
REMARK   57  A    between atoms: _131  and  _132
REMARK   58  A    between atoms: _134  and  _136
REMARK   59  A    between atoms: _136  and  _137
REMARK   60  A    between atoms: _136  and  _139
REMARK   61  A    between atoms: _139  and  _140
REMARK   62  A    between atoms: _146  and  _148
REMARK   63  A    between atoms: _148  and  _149
REMARK   64  A    between atoms: _148  and  _151
REMARK   65  A    between atoms: _151  and  _152
REMARK   66  A    between atoms: _152  and  _153
REMARK   67  A    between atoms: _155  and  _157
REMARK   68  A    between atoms: _157  and  _158
REMARK   69  A    between atoms: _157  and  _160
REMARK   70  A    between atoms: _163  and  _165
REMARK   71  A    between atoms: _165  and  _166
REMARK   72  A    between atoms: _168  and  _170
REMARK   73  A    between atoms: _170  and  _171
REMARK   74  A    between atoms: _170  and  _173
REMARK   75  A    between atoms: _173  and  _174
REMARK   76  A    between atoms: _174  and  _175
REMARK   77  A    between atoms: _180  and  _182
REMARK   78  A    between atoms: _182  and  _183
REMARK   79  A    between atoms: _182  and  _185
REMARK   80  A    between atoms: _185  and  _186
REMARK   81  A    between atoms: _189  and  _191
REMARK   82  A    between atoms: _191  and  _192
REMARK   83  A    between atoms: _194  and  _196
REMARK   84  A    between atoms: _196  and  _197
REMARK   85  A    between atoms: _196  and  _199
REMARK   86  A    between atoms: _199  and  _200
REMARK   87  A    between atoms: _206  and  _208
REMARK   88  A    between atoms: _208  and  _209
REMARK   89  A    between atoms: _208  and  _211
REMARK   90  A    between atoms: _211  and  _212
REMARK   91  A    between atoms: _217  and  _218
REMARK   92  A    between atoms: _220  and  _222
REMARK   93  A    between atoms: _222  and  _223
REMARK   94  A    between atoms: _222  and  _225
REMARK   95  A    between atoms: _228  and  _230
REMARK   96  A    between atoms: _230  and  _231
REMARK   97  A    between atoms: _234  and  _236
REMARK   98  A    between atoms: _236  and  _237
REMARK   99  A    between atoms: _236  and  _239
REMARK  100  A    between atoms: _239  and  _240
REMARK                            x       y       z     vdW  Elec       q    Type
REMARK                         _______ _______ _______ _____ _____    ______ ____
ROOT
ATOM      1  O   HOH     1      10.994  13.308  42.694  0.00  0.00    +0.000 OA
ENDROOT
TORSDOF 0
REMARK  Name = ../refined-set-2016/4llj/4llj_pocket.pdb
REMARK  100 active torsions:
REMARK  status: ('A' for Active; 'I' for Inactive)
REMARK    1  A    between atoms: _1  and  _3
REMARK    2  A    between atoms: _3  and  _4
REMARK    3  A    between atoms: _3  and  _6
REMARK    4  A    between atoms: _6  and  _7
REMARK    5  A    between atoms: _12  and  _13
REMARK    6  A    between atoms: _15  and  _17
REMARK    7  A    between atoms: _17  and  _18
REMARK    8  A    between atoms: _17  and  _20
REMARK    9  A    between atoms: _20  and  _21
REMARK   10  A    between atoms: _26  and  _28
REMARK   11  A    between atoms: _28  and  _29
REMARK   12  A    between atoms: _28  and  _31
REMARK   13  A    between atoms: _31  and  _32
REMARK   14  A    between atoms: _36  and  NI_250
REMARK   15  A    between atoms: _37  and  _39
REMARK   16  A    between atoms: _39  and  _40
REMARK   17  A    between atoms: _39  and  _42
REMARK   18  A    between atoms: _42  and  _43
REMARK   19  A    between atoms: _46  and  _48
REMARK   20  A    between atoms: _48  and  _49
REMARK   21  A    between atoms: _48  and  _51
REMARK   22  A    between atoms: _51  and  _52
REMARK   23  A    between atoms: _52  and  _54
REMARK   24  A    between atoms: _54  and  NI_250
REMARK   25  A    between atoms: _55  and  _57
REMARK   26  A    between atoms: _57  and  _58
REMARK   27  A    between atoms: _57  and  _60
REMARK   28  A    between atoms: _60  and  _61
REMARK   29  A    between atoms: _64  and  _66
REMARK   30  A    between atoms: _66  and  _67
REMARK   31  A    between atoms: _66  and  _69
REMARK   32  A    between atoms: _71  and  _73
REMARK   33  A    between atoms: _73  and  _74
REMARK   34  A    between atoms: _73  and  _76
REMARK   35  A    between atoms: _76  and  _77
REMARK   36  A    between atoms: _79  and  _81
REMARK   37  A    between atoms: _81  and  _82
REMARK   38  A    between atoms: _81  and  _84
REMARK   39  A    between atoms: _87  and  _89
REMARK   40  A    between atoms: _89  and  _90
REMARK   41  A    between atoms: _89  and  _92
REMARK   42  A    between atoms: _92  and  _93
REMARK   43  A    between atoms: _96  and  _98
REMARK   44  A    between atoms: _98  and  _99
REMARK   45  A    between atoms: _98  and  _101
REMARK   46  A    between atoms: _101  and  _102
REMARK   47  A    between atoms: _105  and  _107
REMARK   48  A    between atoms: _107  and  _108
REMARK   49  A    between atoms: _111  and  _113
REMARK   50  A    between atoms: _113  and  _114
REMARK   51  A    between atoms: _113  and  _116
REMARK   52  A    between atoms: _116  and  _117
REMARK   53  A    between atoms: _120  and  _122
REMARK   54  A    between atoms: _122  and  _123
REMARK   55  A    between atoms: _122  and  _125
REMARK   56  A    between atoms: _125  and  _126
REMARK   57  A    between atoms: _131  and  _132
REMARK   58  A    between atoms: _134  and  _136
REMARK   59  A    between atoms: _136  and  _137
REMARK   60  A    between atoms: _136  and  _139
REMARK   61  A    between atoms: _139  and  _140
REMARK   62  A    between atoms: _146  and  _148
REMARK   63  A    between atoms: _148  and  _149
REMARK   64  A    between atoms: _148  and  _151
REMARK   65  A    between atoms: _151  and  _152
REMARK   66  A    between atoms: _152  and  _153
REMARK   67  A    between atoms: _155  and  _157
REMARK   68  A    between atoms: _157  and  _158
REMARK   69  A    between atoms: _157  and  _160
REMARK   70  A    between atoms: _163  and  _165
REMARK   71  A    between atoms: _165  and  _166
REMARK   72  A    between atoms: _168  and  _170
REMARK   73  A    between atoms: _170  and  _171
REMARK   74  A    between atoms: _170  and  _173
REMARK   75  A    between atoms: _173  and  _174
REMARK   76  A    between atoms: _174  and  _175
REMARK   77  A    between atoms: _180  and  _182
REMARK   78  A    between atoms: _182  and  _183
REMARK   79  A    between atoms: _182  and  _185
REMARK   80  A    between atoms: _185  and  _186
REMARK   81  A    between atoms: _189  and  _191
REMARK   82  A    between atoms: _191  and  _192
REMARK   83  A    between atoms: _194  and  _196
REMARK   84  A    between atoms: _196  and  _197
REMARK   85  A    between atoms: _196  and  _199
REMARK   86  A    between atoms: _199  and  _200
REMARK   87  A    between atoms: _206  and  _208
REMARK   88  A    between atoms: _208  and  _209
REMARK   89  A    between atoms: _208  and  _211
REMARK   90  A    between atoms: _211  and  _212
REMARK   91  A    between atoms: _217  and  _218
REMARK   92  A    between atoms: _220  and  _222
REMARK   93  A    between atoms: _222  and  _223
REMARK   94  A    between atoms: _222  and  _225
REMARK   95  A    between atoms: _228  and  _230
REMARK   96  A    between atoms: _230  and  _231
REMARK   97  A    between atoms: _234  and  _236
REMARK   98  A    between atoms: _236  and  _237
REMARK   99  A    between atoms: _236  and  _239
REMARK  100  A    between atoms: _239  and  _240
REMARK                            x       y       z     vdW  Elec       q    Type
REMARK                         _______ _______ _______ _____ _____    ______ ____
ROOT
ATOM      1  O   HOH     1       7.054   9.406  47.227  0.00  0.00    +0.000 OA
ENDROOT
TORSDOF 0
REMARK  Name = ../refined-set-2016/4llj/4llj_pocket.pdb
REMARK  100 active torsions:
REMARK  status: ('A' for Active; 'I' for Inactive)
REMARK    1  A    between atoms: _1  and  _3
REMARK    2  A    between atoms: _3  and  _4
REMARK    3  A    between atoms: _3  and  _6
REMARK    4  A    between atoms: _6  and  _7
REMARK    5  A    between atoms: _12  and  _13
REMARK    6  A    between atoms: _15  and  _17
REMARK    7  A    between atoms: _17  and  _18
REMARK    8  A    between atoms: _17  and  _20
REMARK    9  A    between atoms: _20  and  _21
REMARK   10  A    between atoms: _26  and  _28
REMARK   11  A    between atoms: _28  and  _29
REMARK   12  A    between atoms: _28  and  _31
REMARK   13  A    between atoms: _31  and  _32
REMARK   14  A    between atoms: _36  and  NI_250
REMARK   15  A    between atoms: _37  and  _39
REMARK   16  A    between atoms: _39  and  _40
REMARK   17  A    between atoms: _39  and  _42
REMARK   18  A    between atoms: _42  and  _43
REMARK   19  A    between atoms: _46  and  _48
REMARK   20  A    between atoms: _48  and  _49
REMARK   21  A    between atoms: _48  and  _51
REMARK   22  A    between atoms: _51  and  _52
REMARK   23  A    between atoms: _52  and  _54
REMARK   24  A    between atoms: _54  and  NI_250
REMARK   25  A    between atoms: _55  and  _57
REMARK   26  A    between atoms: _57  and  _58
REMARK   27  A    between atoms: _57  and  _60
REMARK   28  A    between atoms: _60  and  _61
REMARK   29  A    between atoms: _64  and  _66
REMARK   30  A    between atoms: _66  and  _67
REMARK   31  A    between atoms: _66  and  _69
REMARK   32  A    between atoms: _71  and  _73
REMARK   33  A    between atoms: _73  and  _74
REMARK   34  A    between atoms: _73  and  _76
REMARK   35  A    between atoms: _76  and  _77
REMARK   36  A    between atoms: _79  and  _81
REMARK   37  A    between atoms: _81  and  _82
REMARK   38  A    between atoms: _81  and  _84
REMARK   39  A    between atoms: _87  and  _89
REMARK   40  A    between atoms: _89  and  _90
REMARK   41  A    between atoms: _89  and  _92
REMARK   42  A    between atoms: _92  and  _93
REMARK   43  A    between atoms: _96  and  _98
REMARK   44  A    between atoms: _98  and  _99
REMARK   45  A    between atoms: _98  and  _101
REMARK   46  A    between atoms: _101  and  _102
REMARK   47  A    between atoms: _105  and  _107
REMARK   48  A    between atoms: _107  and  _108
REMARK   49  A    between atoms: _111  and  _113
REMARK   50  A    between atoms: _113  and  _114
REMARK   51  A    between atoms: _113  and  _116
REMARK   52  A    between atoms: _116  and  _117
REMARK   53  A    between atoms: _120  and  _122
REMARK   54  A    between atoms: _122  and  _123
REMARK   55  A    between atoms: _122  and  _125
REMARK   56  A    between atoms: _125  and  _126
REMARK   57  A    between atoms: _131  and  _132
REMARK   58  A    between atoms: _134  and  _136
REMARK   59  A    between atoms: _136  and  _137
REMARK   60  A    between atoms: _136  and  _139
REMARK   61  A    between atoms: _139  and  _140
REMARK   62  A    between atoms: _146  and  _148
REMARK   63  A    between atoms: _148  and  _149
REMARK   64  A    between atoms: _148  and  _151
REMARK   65  A    between atoms: _151  and  _152
REMARK   66  A    between atoms: _152  and  _153
REMARK   67  A    between atoms: _155  and  _157
REMARK   68  A    between atoms: _157  and  _158
REMARK   69  A    between atoms: _157  and  _160
REMARK   70  A    between atoms: _163  and  _165
REMARK   71  A    between atoms: _165  and  _166
REMARK   72  A    between atoms: _168  and  _170
REMARK   73  A    between atoms: _170  and  _171
REMARK   74  A    between atoms: _170  and  _173
REMARK   75  A    between atoms: _173  and  _174
REMARK   76  A    between atoms: _174  and  _175
REMARK   77  A    between atoms: _180  and  _182
REMARK   78  A    between atoms: _182  and  _183
REMARK   79  A    between atoms: _182  and  _185
REMARK   80  A    between atoms: _185  and  _186
REMARK   81  A    between atoms: _189  and  _191
REMARK   82  A    between atoms: _191  and  _192
REMARK   83  A    between atoms: _194  and  _196
REMARK   84  A    between atoms: _196  and  _197
REMARK   85  A    between atoms: _196  and  _199
REMARK   86  A    between atoms: _199  and  _200
REMARK   87  A    between atoms: _206  and  _208
REMARK   88  A    between atoms: _208  and  _209
REMARK   89  A    between atoms: _208  and  _211
REMARK   90  A    between atoms: _211  and  _212
REMARK   91  A    between atoms: _217  and  _218
REMARK   92  A    between atoms: _220  and  _222
REMARK   93  A    between atoms: _222  and  _223
REMARK   94  A    between atoms: _222  and  _225
REMARK   95  A    between atoms: _228  and  _230
REMARK   96  A    between atoms: _230  and  _231
REMARK   97  A    between atoms: _234  and  _236
REMARK   98  A    between atoms: _236  and  _237
REMARK   99  A    between atoms: _236  and  _239
REMARK  100  A    between atoms: _239  and  _240
REMARK                            x       y       z     vdW  Elec       q    Type
REMARK                         _______ _______ _______ _____ _____    ______ ____
ROOT
ATOM      1  O   HOH     1      11.382   9.213  40.460  0.00  0.00    +0.000 OA
ENDROOT
TORSDOF 0
REMARK  Name = ../refined-set-2016/4llj/4llj_pocket.pdb
REMARK  100 active torsions:
REMARK  status: ('A' for Active; 'I' for Inactive)
REMARK    1  A    between atoms: _1  and  _3
REMARK    2  A    between atoms: _3  and  _4
REMARK    3  A    between atoms: _3  and  _6
REMARK    4  A    between atoms: _6  and  _7
REMARK    5  A    between atoms: _12  and  _13
REMARK    6  A    between atoms: _15  and  _17
REMARK    7  A    between atoms: _17  and  _18
REMARK    8  A    between atoms: _17  and  _20
REMARK    9  A    between atoms: _20  and  _21
REMARK   10  A    between atoms: _26  and  _28
REMARK   11  A    between atoms: _28  and  _29
REMARK   12  A    between atoms: _28  and  _31
REMARK   13  A    between atoms: _31  and  _32
REMARK   14  A    between atoms: _36  and  NI_250
REMARK   15  A    between atoms: _37  and  _39
REMARK   16  A    between atoms: _39  and  _40
REMARK   17  A    between atoms: _39  and  _42
REMARK   18  A    between atoms: _42  and  _43
REMARK   19  A    between atoms: _46  and  _48
REMARK   20  A    between atoms: _48  and  _49
REMARK   21  A    between atoms: _48  and  _51
REMARK   22  A    between atoms: _51  and  _52
REMARK   23  A    between atoms: _52  and  _54
REMARK   24  A    between atoms: _54  and  NI_250
REMARK   25  A    between atoms: _55  and  _57
REMARK   26  A    between atoms: _57  and  _58
REMARK   27  A    between atoms: _57  and  _60
REMARK   28  A    between atoms: _60  and  _61
REMARK   29  A    between atoms: _64  and  _66
REMARK   30  A    between atoms: _66  and  _67
REMARK   31  A    between atoms: _66  and  _69
REMARK   32  A    between atoms: _71  and  _73
REMARK   33  A    between atoms: _73  and  _74
REMARK   34  A    between atoms: _73  and  _76
REMARK   35  A    between atoms: _76  and  _77
REMARK   36  A    between atoms: _79  and  _81
REMARK   37  A    between atoms: _81  and  _82
REMARK   38  A    between atoms: _81  and  _84
REMARK   39  A    between atoms: _87  and  _89
REMARK   40  A    between atoms: _89  and  _90
REMARK   41  A    between atoms: _89  and  _92
REMARK   42  A    between atoms: _92  and  _93
REMARK   43  A    between atoms: _96  and  _98
REMARK   44  A    between atoms: _98  and  _99
REMARK   45  A    between atoms: _98  and  _101
REMARK   46  A    between atoms: _101  and  _102
REMARK   47  A    between atoms: _105  and  _107
REMARK   48  A    between atoms: _107  and  _108
REMARK   49  A    between atoms: _111  and  _113
REMARK   50  A    between atoms: _113  and  _114
REMARK   51  A    between atoms: _113  and  _116
REMARK   52  A    between atoms: _116  and  _117
REMARK   53  A    between atoms: _120  and  _122
REMARK   54  A    between atoms: _122  and  _123
REMARK   55  A    between atoms: _122  and  _125
REMARK   56  A    between atoms: _125  and  _126
REMARK   57  A    between atoms: _131  and  _132
REMARK   58  A    between atoms: _134  and  _136
REMARK   59  A    between atoms: _136  and  _137
REMARK   60  A    between atoms: _136  and  _139
REMARK   61  A    between atoms: _139  and  _140
REMARK   62  A    between atoms: _146  and  _148
REMARK   63  A    between atoms: _148  and  _149
REMARK   64  A    between atoms: _148  and  _151
REMARK   65  A    between atoms: _151  and  _152
REMARK   66  A    between atoms: _152  and  _153
REMARK   67  A    between atoms: _155  and  _157
REMARK   68  A    between atoms: _157  and  _158
REMARK   69  A    between atoms: _157  and  _160
REMARK   70  A    between atoms: _163  and  _165
REMARK   71  A    between atoms: _165  and  _166
REMARK   72  A    between atoms: _168  and  _170
REMARK   73  A    between atoms: _170  and  _171
REMARK   74  A    between atoms: _170  and  _173
REMARK   75  A    between atoms: _173  and  _174
REMARK   76  A    between atoms: _174  and  _175
REMARK   77  A    between atoms: _180  and  _182
REMARK   78  A    between atoms: _182  and  _183
REMARK   79  A    between atoms: _182  and  _185
REMARK   80  A    between atoms: _185  and  _186
REMARK   81  A    between atoms: _189  and  _191
REMARK   82  A    between atoms: _191  and  _192
REMARK   83  A    between atoms: _194  and  _196
REMARK   84  A    between atoms: _196  and  _197
REMARK   85  A    between atoms: _196  and  _199
REMARK   86  A    between atoms: _199  and  _200
REMARK   87  A    between atoms: _206  and  _208
REMARK   88  A    between atoms: _208  and  _209
REMARK   89  A    between atoms: _208  and  _211
REMARK   90  A    between atoms: _211  and  _212
REMARK   91  A    between atoms: _217  and  _218
REMARK   92  A    between atoms: _220  and  _222
REMARK   93  A    between atoms: _222  and  _223
REMARK   94  A    between atoms: _222  and  _225
REMARK   95  A    between atoms: _228  and  _230
REMARK   96  A    between atoms: _230  and  _231
REMARK   97  A    between atoms: _234  and  _236
REMARK   98  A    between atoms: _236  and  _237
REMARK   99  A    between atoms: _236  and  _239
REMARK  100  A    between atoms: _239  and  _240
REMARK                            x       y       z     vdW  Elec       q    Type
REMARK                         _______ _______ _______ _____ _____    ______ ____
ROOT
ATOM      1  O   HOH     1       3.592  19.652  36.038  0.00  0.00    +0.000 OA
ENDROOT
TORSDOF 0
REMARK  Name = ../refined-set-2016/4llj/4llj_pocket.pdb
REMARK  100 active torsions:
REMARK  status: ('A' for Active; 'I' for Inactive)
REMARK    1  A    between atoms: _1  and  _3
REMARK    2  A    between atoms: _3  and  _4
REMARK    3  A    between atoms: _3  and  _6
REMARK    4  A    between atoms: _6  and  _7
REMARK    5  A    between atoms: _12  and  _13
REMARK    6  A    between atoms: _15  and  _17
REMARK    7  A    between atoms: _17  and  _18
REMARK    8  A    between atoms: _17  and  _20
REMARK    9  A    between atoms: _20  and  _21
REMARK   10  A    between atoms: _26  and  _28
REMARK   11  A    between atoms: _28  and  _29
REMARK   12  A    between atoms: _28  and  _31
REMARK   13  A    between atoms: _31  and  _32
REMARK   14  A    between atoms: _36  and  NI_250
REMARK   15  A    between atoms: _37  and  _39
REMARK   16  A    between atoms: _39  and  _40
REMARK   17  A    between atoms: _39  and  _42
REMARK   18  A    between atoms: _42  and  _43
REMARK   19  A    between atoms: _46  and  _48
REMARK   20  A    between atoms: _48  and  _49
REMARK   21  A    between atoms: _48  and  _51
REMARK   22  A    between atoms: _51  and  _52
REMARK   23  A    between atoms: _52  and  _54
REMARK   24  A    between atoms: _54  and  NI_250
REMARK   25  A    between atoms: _55  and  _57
REMARK   26  A    between atoms: _57  and  _58
REMARK   27  A    between atoms: _57  and  _60
REMARK   28  A    between atoms: _60  and  _61
REMARK   29  A    between atoms: _64  and  _66
REMARK   30  A    between atoms: _66  and  _67
REMARK   31  A    between atoms: _66  and  _69
REMARK   32  A    between atoms: _71  and  _73
REMARK   33  A    between atoms: _73  and  _74
REMARK   34  A    between atoms: _73  and  _76
REMARK   35  A    between atoms: _76  and  _77
REMARK   36  A    between atoms: _79  and  _81
REMARK   37  A    between atoms: _81  and  _82
REMARK   38  A    between atoms: _81  and  _84
REMARK   39  A    between atoms: _87  and  _89
REMARK   40  A    between atoms: _89  and  _90
REMARK   41  A    between atoms: _89  and  _92
REMARK   42  A    between atoms: _92  and  _93
REMARK   43  A    between atoms: _96  and  _98
REMARK   44  A    between atoms: _98  and  _99
REMARK   45  A    between atoms: _98  and  _101
REMARK   46  A    between atoms: _101  and  _102
REMARK   47  A    between atoms: _105  and  _107
REMARK   48  A    between atoms: _107  and  _108
REMARK   49  A    between atoms: _111  and  _113
REMARK   50  A    between atoms: _113  and  _114
REMARK   51  A    between atoms: _113  and  _116
REMARK   52  A    between atoms: _116  and  _117
REMARK   53  A    between atoms: _120  and  _122
REMARK   54  A    between atoms: _122  and  _123
REMARK   55  A    between atoms: _122  and  _125
REMARK   56  A    between atoms: _125  and  _126
REMARK   57  A    between atoms: _131  and  _132
REMARK   58  A    between atoms: _134  and  _136
REMARK   59  A    between atoms: _136  and  _137
REMARK   60  A    between atoms: _136  and  _139
REMARK   61  A    between atoms: _139  and  _140
REMARK   62  A    between atoms: _146  and  _148
REMARK   63  A    between atoms: _148  and  _149
REMARK   64  A    between atoms: _148  and  _151
REMARK   65  A    between atoms: _151  and  _152
REMARK   66  A    between atoms: _152  and  _153
REMARK   67  A    between atoms: _155  and  _157
REMARK   68  A    between atoms: _157  and  _158
REMARK   69  A    between atoms: _157  and  _160
REMARK   70  A    between atoms: _163  and  _165
REMARK   71  A    between atoms: _165  and  _166
REMARK   72  A    between atoms: _168  and  _170
REMARK   73  A    between atoms: _170  and  _171
REMARK   74  A    between atoms: _170  and  _173
REMARK   75  A    between atoms: _173  and  _174
REMARK   76  A    between atoms: _174  and  _175
REMARK   77  A    between atoms: _180  and  _182
REMARK   78  A    between atoms: _182  and  _183
REMARK   79  A    between atoms: _182  and  _185
REMARK   80  A    between atoms: _185  and  _186
REMARK   81  A    between atoms: _189  and  _191
REMARK   82  A    between atoms: _191  and  _192
REMARK   83  A    between atoms: _194  and  _196
REMARK   84  A    between atoms: _196  and  _197
REMARK   85  A    between atoms: _196  and  _199
REMARK   86  A    between atoms: _199  and  _200
REMARK   87  A    between atoms: _206  and  _208
REMARK   88  A    between atoms: _208  and  _209
REMARK   89  A    between atoms: _208  and  _211
REMARK   90  A    between atoms: _211  and  _212
REMARK   91  A    between atoms: _217  and  _218
REMARK   92  A    between atoms: _220  and  _222
REMARK   93  A    between atoms: _222  and  _223
REMARK   94  A    between atoms: _222  and  _225
REMARK   95  A    between atoms: _228  and  _230
REMARK   96  A    between atoms: _230  and  _231
REMARK   97  A    between atoms: _234  and  _236
REMARK   98  A    between atoms: _236  and  _237
REMARK   99  A    between atoms: _236  and  _239
REMARK  100  A    between atoms: _239  and  _240
REMARK                            x       y       z     vdW  Elec       q    Type
REMARK                         _______ _______ _______ _____ _____    ______ ____
ROOT
ATOM      1  O   HOH     1      10.424   6.511  44.064  0.00  0.00    +0.000 OA
ENDROOT
TORSDOF 0
REMARK  Name = ../refined-set-2016/4llj/4llj_pocket.pdb
REMARK  100 active torsions:
REMARK  status: ('A' for Active; 'I' for Inactive)
REMARK    1  A    between atoms: _1  and  _3
REMARK    2  A    between atoms: _3  and  _4
REMARK    3  A    between atoms: _3  and  _6
REMARK    4  A    between atoms: _6  and  _7
REMARK    5  A    between atoms: _12  and  _13
REMARK    6  A    between atoms: _15  and  _17
REMARK    7  A    between atoms: _17  and  _18
REMARK    8  A    between atoms: _17  and  _20
REMARK    9  A    between atoms: _20  and  _21
REMARK   10  A    between atoms: _26  and  _28
REMARK   11  A    between atoms: _28  and  _29
REMARK   12  A    between atoms: _28  and  _31
REMARK   13  A    between atoms: _31  and  _32
REMARK   14  A    between atoms: _36  and  NI_250
REMARK   15  A    between atoms: _37  and  _39
REMARK   16  A    between atoms: _39  and  _40
REMARK   17  A    between atoms: _39  and  _42
REMARK   18  A    between atoms: _42  and  _43
REMARK   19  A    between atoms: _46  and  _48
REMARK   20  A    between atoms: _48  and  _49
REMARK   21  A    between atoms: _48  and  _51
REMARK   22  A    between atoms: _51  and  _52
REMARK   23  A    between atoms: _52  and  _54
REMARK   24  A    between atoms: _54  and  NI_250
REMARK   25  A    between atoms: _55  and  _57
REMARK   26  A    between atoms: _57  and  _58
REMARK   27  A    between atoms: _57  and  _60
REMARK   28  A    between atoms: _60  and  _61
REMARK   29  A    between atoms: _64  and  _66
REMARK   30  A    between atoms: _66  and  _67
REMARK   31  A    between atoms: _66  and  _69
REMARK   32  A    between atoms: _71  and  _73
REMARK   33  A    between atoms: _73  and  _74
REMARK   34  A    between atoms: _73  and  _76
REMARK   35  A    between atoms: _76  and  _77
REMARK   36  A    between atoms: _79  and  _81
REMARK   37  A    between atoms: _81  and  _82
REMARK   38  A    between atoms: _81  and  _84
REMARK   39  A    between atoms: _87  and  _89
REMARK   40  A    between atoms: _89  and  _90
REMARK   41  A    between atoms: _89  and  _92
REMARK   42  A    between atoms: _92  and  _93
REMARK   43  A    between atoms: _96  and  _98
REMARK   44  A    between atoms: _98  and  _99
REMARK   45  A    between atoms: _98  and  _101
REMARK   46  A    between atoms: _101  and  _102
REMARK   47  A    between atoms: _105  and  _107
REMARK   48  A    between atoms: _107  and  _108
REMARK   49  A    between atoms: _111  and  _113
REMARK   50  A    between atoms: _113  and  _114
REMARK   51  A    between atoms: _113  and  _116
REMARK   52  A    between atoms: _116  and  _117
REMARK   53  A    between atoms: _120  and  _122
REMARK   54  A    between atoms: _122  and  _123
REMARK   55  A    between atoms: _122  and  _125
REMARK   56  A    between atoms: _125  and  _126
REMARK   57  A    between atoms: _131  and  _132
REMARK   58  A    between atoms: _134  and  _136
REMARK   59  A    between atoms: _136  and  _137
REMARK   60  A    between atoms: _136  and  _139
REMARK   61  A    between atoms: _139  and  _140
REMARK   62  A    between atoms: _146  and  _148
REMARK   63  A    between atoms: _148  and  _149
REMARK   64  A    between atoms: _148  and  _151
REMARK   65  A    between atoms: _151  and  _152
REMARK   66  A    between atoms: _152  and  _153
REMARK   67  A    between atoms: _155  and  _157
REMARK   68  A    between atoms: _157  and  _158
REMARK   69  A    between atoms: _157  and  _160
REMARK   70  A    between atoms: _163  and  _165
REMARK   71  A    between atoms: _165  and  _166
REMARK   72  A    between atoms: _168  and  _170
REMARK   73  A    between atoms: _170  and  _171
REMARK   74  A    between atoms: _170  and  _173
REMARK   75  A    between atoms: _173  and  _174
REMARK   76  A    between atoms: _174  and  _175
REMARK   77  A    between atoms: _180  and  _182
REMARK   78  A    between atoms: _182  and  _183
REMARK   79  A    between atoms: _182  and  _185
REMARK   80  A    between atoms: _185  and  _186
REMARK   81  A    between atoms: _189  and  _191
REMARK   82  A    between atoms: _191  and  _192
REMARK   83  A    between atoms: _194  and  _196
REMARK   84  A    between atoms: _196  and  _197
REMARK   85  A    between atoms: _196  and  _199
REMARK   86  A    between atoms: _199  and  _200
REMARK   87  A    between atoms: _206  and  _208
REMARK   88  A    between atoms: _208  and  _209
REMARK   89  A    between atoms: _208  and  _211
REMARK   90  A    between atoms: _211  and  _212
REMARK   91  A    between atoms: _217  and  _218
REMARK   92  A    between atoms: _220  and  _222
REMARK   93  A    between atoms: _222  and  _223
REMARK   94  A    between atoms: _222  and  _225
REMARK   95  A    between atoms: _228  and  _230
REMARK   96  A    between atoms: _230  and  _231
REMARK   97  A    between atoms: _234  and  _236
REMARK   98  A    between atoms: _236  and  _237
REMARK   99  A    between atoms: _236  and  _239
REMARK  100  A    between atoms: _239  and  _240
REMARK                            x       y       z     vdW  Elec       q    Type
REMARK                         _______ _______ _______ _____ _____    ______ ____
ROOT
ATOM      1  O   HOH     1       9.014   3.773  43.932  0.00  0.00    +0.000 OA
ENDROOT
TORSDOF 0
REMARK  Name = ../refined-set-2016/4llj/4llj_pocket.pdb
REMARK  100 active torsions:
REMARK  status: ('A' for Active; 'I' for Inactive)
REMARK    1  A    between atoms: _1  and  _3
REMARK    2  A    between atoms: _3  and  _4
REMARK    3  A    between atoms: _3  and  _6
REMARK    4  A    between atoms: _6  and  _7
REMARK    5  A    between atoms: _12  and  _13
REMARK    6  A    between atoms: _15  and  _17
REMARK    7  A    between atoms: _17  and  _18
REMARK    8  A    between atoms: _17  and  _20
REMARK    9  A    between atoms: _20  and  _21
REMARK   10  A    between atoms: _26  and  _28
REMARK   11  A    between atoms: _28  and  _29
REMARK   12  A    between atoms: _28  and  _31
REMARK   13  A    between atoms: _31  and  _32
REMARK   14  A    between atoms: _36  and  NI_250
REMARK   15  A    between atoms: _37  and  _39
REMARK   16  A    between atoms: _39  and  _40
REMARK   17  A    between atoms: _39  and  _42
REMARK   18  A    between atoms: _42  and  _43
REMARK   19  A    between atoms: _46  and  _48
REMARK   20  A    between atoms: _48  and  _49
REMARK   21  A    between atoms: _48  and  _51
REMARK   22  A    between atoms: _51  and  _52
REMARK   23  A    between atoms: _52  and  _54
REMARK   24  A    between atoms: _54  and  NI_250
REMARK   25  A    between atoms: _55  and  _57
REMARK   26  A    between atoms: _57  and  _58
REMARK   27  A    between atoms: _57  and  _60
REMARK   28  A    between atoms: _60  and  _61
REMARK   29  A    between atoms: _64  and  _66
REMARK   30  A    between atoms: _66  and  _67
REMARK   31  A    between atoms: _66  and  _69
REMARK   32  A    between atoms: _71  and  _73
REMARK   33  A    between atoms: _73  and  _74
REMARK   34  A    between atoms: _73  and  _76
REMARK   35  A    between atoms: _76  and  _77
REMARK   36  A    between atoms: _79  and  _81
REMARK   37  A    between atoms: _81  and  _82
REMARK   38  A    between atoms: _81  and  _84
REMARK   39  A    between atoms: _87  and  _89
REMARK   40  A    between atoms: _89  and  _90
REMARK   41  A    between atoms: _89  and  _92
REMARK   42  A    between atoms: _92  and  _93
REMARK   43  A    between atoms: _96  and  _98
REMARK   44  A    between atoms: _98  and  _99
REMARK   45  A    between atoms: _98  and  _101
REMARK   46  A    between atoms: _101  and  _102
REMARK   47  A    between atoms: _105  and  _107
REMARK   48  A    between atoms: _107  and  _108
REMARK   49  A    between atoms: _111  and  _113
REMARK   50  A    between atoms: _113  and  _114
REMARK   51  A    between atoms: _113  and  _116
REMARK   52  A    between atoms: _116  and  _117
REMARK   53  A    between atoms: _120  and  _122
REMARK   54  A    between atoms: _122  and  _123
REMARK   55  A    between atoms: _122  and  _125
REMARK   56  A    between atoms: _125  and  _126
REMARK   57  A    between atoms: _131  and  _132
REMARK   58  A    between atoms: _134  and  _136
REMARK   59  A    between atoms: _136  and  _137
REMARK   60  A    between atoms: _136  and  _139
REMARK   61  A    between atoms: _139  and  _140
REMARK   62  A    between atoms: _146  and  _148
REMARK   63  A    between atoms: _148  and  _149
REMARK   64  A    between atoms: _148  and  _151
REMARK   65  A    between atoms: _151  and  _152
REMARK   66  A    between atoms: _152  and  _153
REMARK   67  A    between atoms: _155  and  _157
REMARK   68  A    between atoms: _157  and  _158
REMARK   69  A    between atoms: _157  and  _160
REMARK   70  A    between atoms: _163  and  _165
REMARK   71  A    between atoms: _165  and  _166
REMARK   72  A    between atoms: _168  and  _170
REMARK   73  A    between atoms: _170  and  _171
REMARK   74  A    between atoms: _170  and  _173
REMARK   75  A    between atoms: _173  and  _174
REMARK   76  A    between atoms: _174  and  _175
REMARK   77  A    between atoms: _180  and  _182
REMARK   78  A    between atoms: _182  and  _183
REMARK   79  A    between atoms: _182  and  _185
REMARK   80  A    between atoms: _185  and  _186
REMARK   81  A    between atoms: _189  and  _191
REMARK   82  A    between atoms: _191  and  _192
REMARK   83  A    between atoms: _194  and  _196
REMARK   84  A    between atoms: _196  and  _197
REMARK   85  A    between atoms: _196  and  _199
REMARK   86  A    between atoms: _199  and  _200
REMARK   87  A    between atoms: _206  and  _208
REMARK   88  A    between atoms: _208  and  _209
REMARK   89  A    between atoms: _208  and  _211
REMARK   90  A    between atoms: _211  and  _212
REMARK   91  A    between atoms: _217  and  _218
REMARK   92  A    between atoms: _220  and  _222
REMARK   93  A    between atoms: _222  and  _223
REMARK   94  A    between atoms: _222  and  _225
REMARK   95  A    between atoms: _228  and  _230
REMARK   96  A    between atoms: _230  and  _231
REMARK   97  A    between atoms: _234  and  _236
REMARK   98  A    between atoms: _236  and  _237
REMARK   99  A    between atoms: _236  and  _239
REMARK  100  A    between atoms: _239  and  _240
REMARK                            x       y       z     vdW  Elec       q    Type
REMARK                         _______ _______ _______ _____ _____    ______ ____
ROOT
ATOM      1  O   HOH     1       1.583  15.594  38.187  0.00  0.00    +0.000 OA
ENDROOT
TORSDOF 0
REMARK  Name = ../refined-set-2016/4llj/4llj_pocket.pdb
REMARK  100 active torsions:
REMARK  status: ('A' for Active; 'I' for Inactive)
REMARK    1  A    between atoms: _1  and  _3
REMARK    2  A    between atoms: _3  and  _4
REMARK    3  A    between atoms: _3  and  _6
REMARK    4  A    between atoms: _6  and  _7
REMARK    5  A    between atoms: _12  and  _13
REMARK    6  A    between atoms: _15  and  _17
REMARK    7  A    between atoms: _17  and  _18
REMARK    8  A    between atoms: _17  and  _20
REMARK    9  A    between atoms: _20  and  _21
REMARK   10  A    between atoms: _26  and  _28
REMARK   11  A    between atoms: _28  and  _29
REMARK   12  A    between atoms: _28  and  _31
REMARK   13  A    between atoms: _31  and  _32
REMARK   14  A    between atoms: _36  and  NI_250
REMARK   15  A    between atoms: _37  and  _39
REMARK   16  A    between atoms: _39  and  _40
REMARK   17  A    between atoms: _39  and  _42
REMARK   18  A    between atoms: _42  and  _43
REMARK   19  A    between atoms: _46  and  _48
REMARK   20  A    between atoms: _48  and  _49
REMARK   21  A    between atoms: _48  and  _51
REMARK   22  A    between atoms: _51  and  _52
REMARK   23  A    between atoms: _52  and  _54
REMARK   24  A    between atoms: _54  and  NI_250
REMARK   25  A    between atoms: _55  and  _57
REMARK   26  A    between atoms: _57  and  _58
REMARK   27  A    between atoms: _57  and  _60
REMARK   28  A    between atoms: _60  and  _61
REMARK   29  A    between atoms: _64  and  _66
REMARK   30  A    between atoms: _66  and  _67
REMARK   31  A    between atoms: _66  and  _69
REMARK   32  A    between atoms: _71  and  _73
REMARK   33  A    between atoms: _73  and  _74
REMARK   34  A    between atoms: _73  and  _76
REMARK   35  A    between atoms: _76  and  _77
REMARK   36  A    between atoms: _79  and  _81
REMARK   37  A    between atoms: _81  and  _82
REMARK   38  A    between atoms: _81  and  _84
REMARK   39  A    between atoms: _87  and  _89
REMARK   40  A    between atoms: _89  and  _90
REMARK   41  A    between atoms: _89  and  _92
REMARK   42  A    between atoms: _92  and  _93
REMARK   43  A    between atoms: _96  and  _98
REMARK   44  A    between atoms: _98  and  _99
REMARK   45  A    between atoms: _98  and  _101
REMARK   46  A    between atoms: _101  and  _102
REMARK   47  A    between atoms: _105  and  _107
REMARK   48  A    between atoms: _107  and  _108
REMARK   49  A    between atoms: _111  and  _113
REMARK   50  A    between atoms: _113  and  _114
REMARK   51  A    between atoms: _113  and  _116
REMARK   52  A    between atoms: _116  and  _117
REMARK   53  A    between atoms: _120  and  _122
REMARK   54  A    between atoms: _122  and  _123
REMARK   55  A    between atoms: _122  and  _125
REMARK   56  A    between atoms: _125  and  _126
REMARK   57  A    between atoms: _131  and  _132
REMARK   58  A    between atoms: _134  and  _136
REMARK   59  A    between atoms: _136  and  _137
REMARK   60  A    between atoms: _136  and  _139
REMARK   61  A    between atoms: _139  and  _140
REMARK   62  A    between atoms: _146  and  _148
REMARK   63  A    between atoms: _148  and  _149
REMARK   64  A    between atoms: _148  and  _151
REMARK   65  A    between atoms: _151  and  _152
REMARK   66  A    between atoms: _152  and  _153
REMARK   67  A    between atoms: _155  and  _157
REMARK   68  A    between atoms: _157  and  _158
REMARK   69  A    between atoms: _157  and  _160
REMARK   70  A    between atoms: _163  and  _165
REMARK   71  A    between atoms: _165  and  _166
REMARK   72  A    between atoms: _168  and  _170
REMARK   73  A    between atoms: _170  and  _171
REMARK   74  A    between atoms: _170  and  _173
REMARK   75  A    between atoms: _173  and  _174
REMARK   76  A    between atoms: _174  and  _175
REMARK   77  A    between atoms: _180  and  _182
REMARK   78  A    between atoms: _182  and  _183
REMARK   79  A    between atoms: _182  and  _185
REMARK   80  A    between atoms: _185  and  _186
REMARK   81  A    between atoms: _189  and  _191
REMARK   82  A    between atoms: _191  and  _192
REMARK   83  A    between atoms: _194  and  _196
REMARK   84  A    between atoms: _196  and  _197
REMARK   85  A    between atoms: _196  and  _199
REMARK   86  A    between atoms: _199  and  _200
REMARK   87  A    between atoms: _206  and  _208
REMARK   88  A    between atoms: _208  and  _209
REMARK   89  A    between atoms: _208  and  _211
REMARK   90  A    between atoms: _211  and  _212
REMARK   91  A    between atoms: _217  and  _218
REMARK   92  A    between atoms: _220  and  _222
REMARK   93  A    between atoms: _222  and  _223
REMARK   94  A    between atoms: _222  and  _225
REMARK   95  A    between atoms: _228  and  _230
REMARK   96  A    between atoms: _230  and  _231
REMARK   97  A    between atoms: _234  and  _236
REMARK   98  A    between atoms: _236  and  _237
REMARK   99  A    between atoms: _236  and  _239
REMARK  100  A    between atoms: _239  and  _240
REMARK                            x       y       z     vdW  Elec       q    Type
REMARK                         _______ _______ _______ _____ _____    ______ ____
ROOT
ATOM      1  O   HOH     1       7.105   6.474  44.411  0.00  0.00    +0.000 OA
ENDROOT
TORSDOF 0
REMARK  Name = ../refined-set-2016/4llj/4llj_pocket.pdb
REMARK  100 active torsions:
REMARK  status: ('A' for Active; 'I' for Inactive)
REMARK    1  A    between atoms: _1  and  _3
REMARK    2  A    between atoms: _3  and  _4
REMARK    3  A    between atoms: _3  and  _6
REMARK    4  A    between atoms: _6  and  _7
REMARK    5  A    between atoms: _12  and  _13
REMARK    6  A    between atoms: _15  and  _17
REMARK    7  A    between atoms: _17  and  _18
REMARK    8  A    between atoms: _17  and  _20
REMARK    9  A    between atoms: _20  and  _21
REMARK   10  A    between atoms: _26  and  _28
REMARK   11  A    between atoms: _28  and  _29
REMARK   12  A    between atoms: _28  and  _31
REMARK   13  A    between atoms: _31  and  _32
REMARK   14  A    between atoms: _36  and  NI_250
REMARK   15  A    between atoms: _37  and  _39
REMARK   16  A    between atoms: _39  and  _40
REMARK   17  A    between atoms: _39  and  _42
REMARK   18  A    between atoms: _42  and  _43
REMARK   19  A    between atoms: _46  and  _48
REMARK   20  A    between atoms: _48  and  _49
REMARK   21  A    between atoms: _48  and  _51
REMARK   22  A    between atoms: _51  and  _52
REMARK   23  A    between atoms: _52  and  _54
REMARK   24  A    between atoms: _54  and  NI_250
REMARK   25  A    between atoms: _55  and  _57
REMARK   26  A    between atoms: _57  and  _58
REMARK   27  A    between atoms: _57  and  _60
REMARK   28  A    between atoms: _60  and  _61
REMARK   29  A    between atoms: _64  and  _66
REMARK   30  A    between atoms: _66  and  _67
REMARK   31  A    between atoms: _66  and  _69
REMARK   32  A    between atoms: _71  and  _73
REMARK   33  A    between atoms: _73  and  _74
REMARK   34  A    between atoms: _73  and  _76
REMARK   35  A    between atoms: _76  and  _77
REMARK   36  A    between atoms: _79  and  _81
REMARK   37  A    between atoms: _81  and  _82
REMARK   38  A    between atoms: _81  and  _84
REMARK   39  A    between atoms: _87  and  _89
REMARK   40  A    between atoms: _89  and  _90
REMARK   41  A    between atoms: _89  and  _92
REMARK   42  A    between atoms: _92  and  _93
REMARK   43  A    between atoms: _96  and  _98
REMARK   44  A    between atoms: _98  and  _99
REMARK   45  A    between atoms: _98  and  _101
REMARK   46  A    between atoms: _101  and  _102
REMARK   47  A    between atoms: _105  and  _107
REMARK   48  A    between atoms: _107  and  _108
REMARK   49  A    between atoms: _111  and  _113
REMARK   50  A    between atoms: _113  and  _114
REMARK   51  A    between atoms: _113  and  _116
REMARK   52  A    between atoms: _116  and  _117
REMARK   53  A    between atoms: _120  and  _122
REMARK   54  A    between atoms: _122  and  _123
REMARK   55  A    between atoms: _122  and  _125
REMARK   56  A    between atoms: _125  and  _126
REMARK   57  A    between atoms: _131  and  _132
REMARK   58  A    between atoms: _134  and  _136
REMARK   59  A    between atoms: _136  and  _137
REMARK   60  A    between atoms: _136  and  _139
REMARK   61  A    between atoms: _139  and  _140
REMARK   62  A    between atoms: _146  and  _148
REMARK   63  A    between atoms: _148  and  _149
REMARK   64  A    between atoms: _148  and  _151
REMARK   65  A    between atoms: _151  and  _152
REMARK   66  A    between atoms: _152  and  _153
REMARK   67  A    between atoms: _155  and  _157
REMARK   68  A    between atoms: _157  and  _158
REMARK   69  A    between atoms: _157  and  _160
REMARK   70  A    between atoms: _163  and  _165
REMARK   71  A    between atoms: _165  and  _166
REMARK   72  A    between atoms: _168  and  _170
REMARK   73  A    between atoms: _170  and  _171
REMARK   74  A    between atoms: _170  and  _173
REMARK   75  A    between atoms: _173  and  _174
REMARK   76  A    between atoms: _174  and  _175
REMARK   77  A    between atoms: _180  and  _182
REMARK   78  A    between atoms: _182  and  _183
REMARK   79  A    between atoms: _182  and  _185
REMARK   80  A    between atoms: _185  and  _186
REMARK   81  A    between atoms: _189  and  _191
REMARK   82  A    between atoms: _191  and  _192
REMARK   83  A    between atoms: _194  and  _196
REMARK   84  A    between atoms: _196  and  _197
REMARK   85  A    between atoms: _196  and  _199
REMARK   86  A    between atoms: _199  and  _200
REMARK   87  A    between atoms: _206  and  _208
REMARK   88  A    between atoms: _208  and  _209
REMARK   89  A    between atoms: _208  and  _211
REMARK   90  A    between atoms: _211  and  _212
REMARK   91  A    between atoms: _217  and  _218
REMARK   92  A    between atoms: _220  and  _222
REMARK   93  A    between atoms: _222  and  _223
REMARK   94  A    between atoms: _222  and  _225
REMARK   95  A    between atoms: _228  and  _230
REMARK   96  A    between atoms: _230  and  _231
REMARK   97  A    between atoms: _234  and  _236
REMARK   98  A    between atoms: _236  and  _237
REMARK   99  A    between atoms: _236  and  _239
REMARK  100  A    between atoms: _239  and  _240
REMARK                            x       y       z     vdW  Elec       q    Type
REMARK                         _______ _______ _______ _____ _____    ______ ____
ROOT
ATOM      1  O   HOH     1       4.443  12.621  47.855  0.00  0.00    +0.000 OA
ENDROOT
TORSDOF 0
REMARK  Name = ../refined-set-2016/4llj/4llj_pocket.pdb
REMARK  100 active torsions:
REMARK  status: ('A' for Active; 'I' for Inactive)
REMARK    1  A    between atoms: _1  and  _3
REMARK    2  A    between atoms: _3  and  _4
REMARK    3  A    between atoms: _3  and  _6
REMARK    4  A    between atoms: _6  and  _7
REMARK    5  A    between atoms: _12  and  _13
REMARK    6  A    between atoms: _15  and  _17
REMARK    7  A    between atoms: _17  and  _18
REMARK    8  A    between atoms: _17  and  _20
REMARK    9  A    between atoms: _20  and  _21
REMARK   10  A    between atoms: _26  and  _28
REMARK   11  A    between atoms: _28  and  _29
REMARK   12  A    between atoms: _28  and  _31
REMARK   13  A    between atoms: _31  and  _32
REMARK   14  A    between atoms: _36  and  NI_250
REMARK   15  A    between atoms: _37  and  _39
REMARK   16  A    between atoms: _39  and  _40
REMARK   17  A    between atoms: _39  and  _42
REMARK   18  A    between atoms: _42  and  _43
REMARK   19  A    between atoms: _46  and  _48
REMARK   20  A    between atoms: _48  and  _49
REMARK   21  A    between atoms: _48  and  _51
REMARK   22  A    between atoms: _51  and  _52
REMARK   23  A    between atoms: _52  and  _54
REMARK   24  A    between atoms: _54  and  NI_250
REMARK   25  A    between atoms: _55  and  _57
REMARK   26  A    between atoms: _57  and  _58
REMARK   27  A    between atoms: _57  and  _60
REMARK   28  A    between atoms: _60  and  _61
REMARK   29  A    between atoms: _64  and  _66
REMARK   30  A    between atoms: _66  and  _67
REMARK   31  A    between atoms: _66  and  _69
REMARK   32  A    between atoms: _71  and  _73
REMARK   33  A    between atoms: _73  and  _74
REMARK   34  A    between atoms: _73  and  _76
REMARK   35  A    between atoms: _76  and  _77
REMARK   36  A    between atoms: _79  and  _81
REMARK   37  A    between atoms: _81  and  _82
REMARK   38  A    between atoms: _81  and  _84
REMARK   39  A    between atoms: _87  and  _89
REMARK   40  A    between atoms: _89  and  _90
REMARK   41  A    between atoms: _89  and  _92
REMARK   42  A    between atoms: _92  and  _93
REMARK   43  A    between atoms: _96  and  _98
REMARK   44  A    between atoms: _98  and  _99
REMARK   45  A    between atoms: _98  and  _101
REMARK   46  A    between atoms: _101  and  _102
REMARK   47  A    between atoms: _105  and  _107
REMARK   48  A    between atoms: _107  and  _108
REMARK   49  A    between atoms: _111  and  _113
REMARK   50  A    between atoms: _113  and  _114
REMARK   51  A    between atoms: _113  and  _116
REMARK   52  A    between atoms: _116  and  _117
REMARK   53  A    between atoms: _120  and  _122
REMARK   54  A    between atoms: _122  and  _123
REMARK   55  A    between atoms: _122  and  _125
REMARK   56  A    between atoms: _125  and  _126
REMARK   57  A    between atoms: _131  and  _132
REMARK   58  A    between atoms: _134  and  _136
REMARK   59  A    between atoms: _136  and  _137
REMARK   60  A    between atoms: _136  and  _139
REMARK   61  A    between atoms: _139  and  _140
REMARK   62  A    between atoms: _146  and  _148
REMARK   63  A    between atoms: _148  and  _149
REMARK   64  A    between atoms: _148  and  _151
REMARK   65  A    between atoms: _151  and  _152
REMARK   66  A    between atoms: _152  and  _153
REMARK   67  A    between atoms: _155  and  _157
REMARK   68  A    between atoms: _157  and  _158
REMARK   69  A    between atoms: _157  and  _160
REMARK   70  A    between atoms: _163  and  _165
REMARK   71  A    between atoms: _165  and  _166
REMARK   72  A    between atoms: _168  and  _170
REMARK   73  A    between atoms: _170  and  _171
REMARK   74  A    between atoms: _170  and  _173
REMARK   75  A    between atoms: _173  and  _174
REMARK   76  A    between atoms: _174  and  _175
REMARK   77  A    between atoms: _180  and  _182
REMARK   78  A    between atoms: _182  and  _183
REMARK   79  A    between atoms: _182  and  _185
REMARK   80  A    between atoms: _185  and  _186
REMARK   81  A    between atoms: _189  and  _191
REMARK   82  A    between atoms: _191  and  _192
REMARK   83  A    between atoms: _194  and  _196
REMARK   84  A    between atoms: _196  and  _197
REMARK   85  A    between atoms: _196  and  _199
REMARK   86  A    between atoms: _199  and  _200
REMARK   87  A    between atoms: _206  and  _208
REMARK   88  A    between atoms: _208  and  _209
REMARK   89  A    between atoms: _208  and  _211
REMARK   90  A    between atoms: _211  and  _212
REMARK   91  A    between atoms: _217  and  _218
REMARK   92  A    between atoms: _220  and  _222
REMARK   93  A    between atoms: _222  and  _223
REMARK   94  A    between atoms: _222  and  _225
REMARK   95  A    between atoms: _228  and  _230
REMARK   96  A    between atoms: _230  and  _231
REMARK   97  A    between atoms: _234  and  _236
REMARK   98  A    between atoms: _236  and  _237
REMARK   99  A    between atoms: _236  and  _239
REMARK  100  A    between atoms: _239  and  _240
REMARK                            x       y       z     vdW  Elec       q    Type
REMARK                         _______ _______ _______ _____ _____    ______ ____
ROOT
ATOM      1  O   HOH     1       7.673   9.355  40.537  0.00  0.00    +0.000 OA
ENDROOT
TORSDOF 0
