REMARK  Name = ../refined-set-2016/3qin/3qin_pocket.pdb
REMARK  124 active torsions:
REMARK  status: ('A' for Active; 'I' for Inactive)
REMARK    1  A    between atoms: _1  and  _3
REMARK    2  A    between atoms: _3  and  _4
REMARK    3  A    between atoms: _3  and  _6
REMARK    4  A    between atoms: _9  and  _11
REMARK    5  A    between atoms: _11  and  _12
REMARK    6  A    between atoms: _11  and  _14
REMARK    7  A    between atoms: _14  and  _15
REMARK    8  A    between atoms: _15  and  _16
REMARK    9  A    between atoms: _15  and  _17
REMARK   10  A    between atoms: _16  and  MN_285
REMARK   11  A    between atoms: _17  and  MN_286
REMARK   12  A    between atoms: _18  and  _20
REMARK   13  A    between atoms: _20  and  _21
REMARK   14  A    between atoms: _23  and  _25
REMARK   15  A    between atoms: _25  and  _26
REMARK   16  A    between atoms: _29  and  _31
REMARK   17  A    between atoms: _31  and  _32
REMARK   18  A    between atoms: _35  and  _37
REMARK   19  A    between atoms: _37  and  _38
REMARK   20  A    between atoms: _37  and  _40
REMARK   21  A    between atoms: _40  and  _41
REMARK   22  A    between atoms: _46  and  _48
REMARK   23  A    between atoms: _48  and  _49
REMARK   24  A    between atoms: _48  and  _51
REMARK   25  A    between atoms: _51  and  _52
REMARK   26  A    between atoms: _52  and  _53
REMARK   27  A    between atoms: _58  and  _60
REMARK   28  A    between atoms: _60  and  _61
REMARK   29  A    between atoms: _60  and  _63
REMARK   30  A    between atoms: _63  and  _64
REMARK   31  A    between atoms: _67  and  _69
REMARK   32  A    between atoms: _69  and  _70
REMARK   33  A    between atoms: _69  and  _72
REMARK   34  A    between atoms: _72  and  _73
REMARK   35  A    between atoms: _73  and  _74
REMARK   36  A    between atoms: _74  and  _75
REMARK   37  A    between atoms: _75  and  MN_285
REMARK   38  A    between atoms: _77  and  _79
REMARK   39  A    between atoms: _79  and  _80
REMARK   40  A    between atoms: _79  and  _82
REMARK   41  A    between atoms: _82  and  _83
REMARK   42  A    between atoms: _86  and  _88
REMARK   43  A    between atoms: _88  and  _89
REMARK   44  A    between atoms: _88  and  _91
REMARK   45  A    between atoms: _91  and  _92
REMARK   46  A    between atoms: _92  and  _94
REMARK   47  A    between atoms: _94  and  MN_285
REMARK   48  A    between atoms: _95  and  _97
REMARK   49  A    between atoms: _97  and  _98
REMARK   50  A    between atoms: _97  and  _100
REMARK   51  A    between atoms: _100  and  _101
REMARK   52  A    between atoms: _103  and  _105
REMARK   53  A    between atoms: _105  and  _106
REMARK   54  A    between atoms: _105  and  _108
REMARK   55  A    between atoms: _108  and  _109
REMARK   56  A    between atoms: _109  and  _110
REMARK   57  A    between atoms: _115  and  _117
REMARK   58  A    between atoms: _117  and  _118
REMARK   59  A    between atoms: _117  and  _120
REMARK   60  A    between atoms: _120  and  _121
REMARK   61  A    between atoms: _126  and  _127
REMARK   62  A    between atoms: _129  and  _131
REMARK   63  A    between atoms: _131  and  _132
REMARK   64  A    between atoms: _135  and  _137
REMARK   65  A    between atoms: _137  and  _138
REMARK   66  A    between atoms: _137  and  _140
REMARK   67  A    between atoms: _140  and  _141
REMARK   68  A    between atoms: _151  and  _153
REMARK   69  A    between atoms: _153  and  _154
REMARK   70  A    between atoms: _153  and  _156
REMARK   71  A    between atoms: _160  and  _161
REMARK   72  A    between atoms: _166  and  _168
REMARK   73  A    between atoms: _168  and  _169
REMARK   74  A    between atoms: _172  and  _174
REMARK   75  A    between atoms: _174  and  _175
REMARK   76  A    between atoms: _174  and  _177
REMARK   77  A    between atoms: _177  and  _178
REMARK   78  A    between atoms: _183  and  _185
REMARK   79  A    between atoms: _185  and  _186
REMARK   80  A    between atoms: _185  and  _188
REMARK   81  A    between atoms: _188  and  _189
REMARK   82  A    between atoms: _189  and  _190
REMARK   83  A    between atoms: _190  and  _191
REMARK   84  A    between atoms: _191  and  _192
REMARK   85  A    between atoms: _196  and  _198
REMARK   86  A    between atoms: _198  and  _199
REMARK   87  A    between atoms: _201  and  _203
REMARK   88  A    between atoms: _203  and  _204
REMARK   89  A    between atoms: _203  and  _206
REMARK   90  A    between atoms: _206  and  _207
REMARK   91  A    between atoms: _212  and  _214
REMARK   92  A    between atoms: _214  and  _215
REMARK   93  A    between atoms: _214  and  _217
REMARK   94  A    between atoms: _217  and  _218
REMARK   95  A    between atoms: _218  and  _219
REMARK   96  A    between atoms: _222  and  _224
REMARK   97  A    between atoms: _224  and  _225
REMARK   98  A    between atoms: _224  and  _227
REMARK   99  A    between atoms: _230  and  _232
REMARK  100  A    between atoms: _232  and  _233
REMARK  101  A    between atoms: _232  and  _235
REMARK  102  A    between atoms: _235  and  _236
REMARK  103  A    between atoms: _236  and  _238
REMARK  104  A    between atoms: _238  and  MN_286
REMARK  105  A    between atoms: _239  and  _241
REMARK  106  A    between atoms: _241  and  _242
REMARK  107  A    between atoms: _241  and  _244
REMARK  108  A    between atoms: _244  and  _245
REMARK  109  A    between atoms: _245  and  _246
REMARK  110  A    between atoms: _246  and  _247
REMARK  111  A    between atoms: _247  and  _248
REMARK  112  A    between atoms: _252  and  _254
REMARK  113  A    between atoms: _254  and  _255
REMARK  114  A    between atoms: _254  and  _257
REMARK  115  A    between atoms: _260  and  _262
REMARK  116  A    between atoms: _262  and  _263
REMARK  117  A    between atoms: _262  and  _265
REMARK  118  A    between atoms: _265  and  _266
REMARK  119  A    between atoms: _268  and  _270
REMARK  120  A    between atoms: _270  and  _271
REMARK  121  A    between atoms: _270  and  _273
REMARK  122  A    between atoms: _273  and  _274
REMARK  123  A    between atoms: _274  and  _275
REMARK  124  A    between atoms: _275  and  _276
REMARK                            x       y       z     vdW  Elec       q    Type
REMARK                         _______ _______ _______ _____ _____    ______ ____
ROOT
ATOM      1 MN   UNK A   2       3.620   7.047  26.066  0.00  0.00    +0.000 Mn
ENDROOT
BRANCH   1   2
ATOM      2  O   UNK A   2       2.337   6.453  24.590  0.00  0.00    +0.000 OA
BRANCH   2   3
ATOM      3  C   UNK A   2       2.382   6.521  23.346  0.00  0.00    +0.000 C 
ATOM      4  O   UNK A   2       3.236   7.208  22.745  0.00  0.00    +0.000 OA
BRANCH   3   5
ATOM      5  C   UNK A   2       1.383   5.689  22.565  0.00  0.00    +0.000 C 
BRANCH   5   6
ATOM      6  C   UNK A   2       1.601   5.727  21.046  0.00  0.00    +0.000 C 
BRANCH   6   7
ATOM      7  C   UNK A   2       0.941   6.926  20.367  0.00  0.00    +0.000 C 
BRANCH   7   8
ATOM      8  N   UNK A   2      -0.513   6.860  20.523  0.00  0.00    +0.000 N 
ATOM      9  H   UNK A   2      -0.954   5.993  20.891  0.00  0.00    +0.000 HD
ATOM     10  C   THR A   1      -1.272   7.899  20.198  0.00  0.00    +0.000 C 
ATOM     11  O   THR A   1      -0.811   8.947  19.745  0.00  0.00    +0.000 OA
BRANCH  10  12
ATOM     12  CA  THR A   1      -2.772   7.749  20.423  0.00  0.00    +0.000 C 
BRANCH  12  13
ATOM     13  N   THR A   1      -3.213   6.366  20.221  0.00  0.00    +0.000 NA
ATOM     14  H   THR A   1      -3.635   5.836  21.010  0.00  0.00    +0.000 HD
ENDBRANCH  12  13
BRANCH  12  15
ATOM     15  CB  THR A   1      -3.133   8.338  21.813  0.00  0.00    +0.000 C 
ATOM     16  CG2 THR A   1      -4.663   8.431  21.991  0.00  0.00    +0.000 C 
BRANCH  15  17
ATOM     17  OG1 THR A   1      -2.565   7.533  22.862  0.00  0.00    +0.000 OA
ATOM     18  HG1 THR A   1      -2.922   6.612  22.799  0.00  0.00    +0.000 HD
ENDBRANCH  15  17
ENDBRANCH  12  15
ENDBRANCH  10  12
ENDBRANCH   7   8
BRANCH   7  19
ATOM     19  C   UNK A   2       1.311   6.964  18.892  0.00  0.00    +0.000 C 
ATOM     20  O   UNK A   2       2.189   7.718  18.494  0.00  0.00    +0.000 OA
ENDBRANCH   7  19
ENDBRANCH   6   7
ENDBRANCH   5   6
ENDBRANCH   3   5
ENDBRANCH   2   3
ENDBRANCH   1   2
BRANCH   1  21
ATOM     21  O   UNK A   2       3.196   9.012  25.559  0.00  0.00    +0.000 OA
BRANCH  21  22
ATOM     22  C   UNK A   2       3.252  10.206  25.940  0.00  0.00    +0.000 C 
BRANCH  22  23
ATOM     23  C   UNK A   2       3.489  11.305  24.915  0.00  0.00    +0.000 C 
BRANCH  23  24
ATOM     24  C   UNK A   2       3.179  10.852  23.487  0.00  0.00    +0.000 C 
BRANCH  24  25
ATOM     25  C   UNK A   2       1.687  10.866  23.250  0.00  0.00    +0.000 C 
ATOM     26  N   GLY A   3       0.994   9.912  23.859  0.00  0.00    +0.000 N 
ATOM     27  H   GLY A   3       1.496   9.175  24.394  0.00  0.00    +0.000 HD
ATOM     28  O   UNK A   2       1.176  11.700  22.516  0.00  0.00    +0.000 OA
BRANCH  26  29
ATOM     29  CA  GLY A   3      -0.450   9.883  23.788  0.00  0.00    +0.000 C 
BRANCH  29  30
ATOM     30  C   GLY A   3      -1.022   9.365  25.087  0.00  0.00    +0.000 C 
ATOM     31  O   GLY A   3      -0.327   8.703  25.876  0.00  0.00    +0.000 OA
ATOM     32  N   ALA A   4      -2.288   9.685  25.324  0.00  0.00    +0.000 N 
ATOM     33  H   ALA A   4      -2.777  10.325  24.666  0.00  0.00    +0.000 HD
BRANCH  32  34
ATOM     34  CA  ALA A   4      -3.013   9.169  26.475  0.00  0.00    +0.000 C 
ATOM     35  CB  ALA A   4      -2.942  10.152  27.644  0.00  0.00    +0.000 C 
BRANCH  34  36
ATOM     36  C   ALA A   4      -4.454   8.959  26.042  0.00  0.00    +0.000 C 
ATOM     37  N   ALA A   5      -5.108   7.952  26.601  0.00  0.00    +0.000 N 
ATOM     38  H   ALA A   5      -4.620   7.335  27.281  0.00  0.00    +0.000 HD
ATOM     39  O   ALA A   4      -4.971   9.695  25.203  0.00  0.00    +0.000 OA
BRANCH  37  40
ATOM     40  CA  ALA A   5      -6.502   7.702  26.272  0.00  0.00    +0.000 C 
ATOM     41  CB  ALA A   5      -6.623   6.753  25.117  0.00  0.00    +0.000 C 
BRANCH  40  42
ATOM     42  C   ALA A   5      -7.244   7.166  27.476  0.00  0.00    +0.000 C 
ATOM     43  O   ALA A   5      -6.651   6.552  28.363  0.00  0.00    +0.000 OA
ENDBRANCH  40  42
ENDBRANCH  37  40
ENDBRANCH  34  36
ENDBRANCH  32  34
ENDBRANCH  29  30
ENDBRANCH  26  29
ENDBRANCH  24  25
BRANCH  24  46
ATOM     44  C   THR A   1       5.148  11.649  22.342  0.00  0.00    +0.000 C 
ATOM     45  O   THR A   1       5.887  10.987  23.059  0.00  0.00    +0.000 OA
ATOM     46  N   UNK A   2       3.838  11.721  22.525  0.00  0.00    +0.000 N 
ATOM     47  H   UNK A   2       3.277  12.404  21.977  0.00  0.00    +0.000 HD
BRANCH  44  48
ATOM     48  CA  THR A   1       5.710  12.450  21.188  0.00  0.00    +0.000 C 
BRANCH  48  49
ATOM     49  CB  THR A   1       5.519  11.639  19.873  0.00  0.00    +0.000 C 
ATOM     50  CG2 THR A   1       6.389  10.370  19.829  0.00  0.00    +0.000 C 
ATOM     51  CG1 THR A   1       5.789  12.504  18.634  0.00  0.00    +0.000 C 
ENDBRANCH  48  49
BRANCH  48  52
ATOM     52  N   THR A   1       7.105  12.777  21.438  0.00  0.00    +0.000 NA
ATOM     53  H   THR A   1       7.817  12.020  21.405  0.00  0.00    +0.000 HD
ENDBRANCH  48  52
ENDBRANCH  44  48
ENDBRANCH  24  46
ENDBRANCH  23  24
ENDBRANCH  22  23
BRANCH  22  54
ATOM     54  O   UNK A   2       3.098  10.550  27.129  0.00  0.00    +0.000 OA
BRANCH  54  55
ATOM     55 MN   UNK A   2       2.735   9.331  28.855  0.00  0.00    +0.000 Mn
ATOM     56  O   UNK A   2       4.908   9.153  29.223  0.00  0.00    +0.000 OA
ATOM     57  O   UNK A   2       0.550   9.221  28.444  0.00  0.00    +0.000 OA
BRANCH  55  58
ATOM     58  O   UNK A   2       2.509  10.846  30.326  0.00  0.00    +0.000 OA
BRANCH  58  59
ATOM     59  C   UNK A   2       3.060  11.905  30.698  0.00  0.00    +0.000 C 
ATOM     60  O   UNK A   2       2.854  12.442  31.808  0.00  0.00    +0.000 OA
BRANCH  59  61
ATOM     61  C   UNK A   2       3.972  12.598  29.708  0.00  0.00    +0.000 C 
BRANCH  61  62
ATOM     62  C   UNK A   2       3.188  13.502  28.745  0.00  0.00    +0.000 C 
BRANCH  62  63
ATOM     63  N   UNK A   2       4.069  14.348  27.943  0.00  0.00    +0.000 N 
ATOM     64  H   UNK A   2       5.099  14.321  28.084  0.00  0.00    +0.000 HD
ATOM     65  C   THR A   1       3.532  15.156  27.027  0.00  0.00    +0.000 C 
ATOM     66  O   THR A   1       2.317  15.202  26.824  0.00  0.00    +0.000 OA
BRANCH  65  67
ATOM     67  CA  THR A   1       4.472  16.085  26.249  0.00  0.00    +0.000 C 
BRANCH  67  68
ATOM     68  CB  THR A   1       4.989  15.430  24.944  0.00  0.00    +0.000 C 
ATOM     69  CG2 THR A   1       5.732  14.088  25.233  0.00  0.00    +0.000 C 
ATOM     70  CG1 THR A   1       3.816  15.167  23.992  0.00  0.00    +0.000 C 
ENDBRANCH  67  68
BRANCH  67  71
ATOM     71  N   THR A   1       5.541  16.561  27.112  0.00  0.00    +0.000 NA
ATOM     72  H   THR A   1       6.522  16.258  26.949  0.00  0.00    +0.000 HD
ENDBRANCH  67  71
ENDBRANCH  65  67
ENDBRANCH  62  63
BRANCH  62  73
ATOM     73  C   UNK A   2       2.175  14.357  29.529  0.00  0.00    +0.000 C 
ATOM     74  N   GLY A   3       2.645  15.451  30.116  0.00  0.00    +0.000 N 
ATOM     75  H   GLY A   3       3.657  15.677  30.040  0.00  0.00    +0.000 HD
ATOM     76  O   UNK A   2       0.982  14.038  29.592  0.00  0.00    +0.000 OA
BRANCH  74  77
ATOM     77  CA  GLY A   3       1.766  16.341  30.865  0.00  0.00    +0.000 C 
BRANCH  77  78
ATOM     78  C   GLY A   3       0.644  16.893  29.978  0.00  0.00    +0.000 C 
ATOM     79  O   GLY A   3      -0.514  16.962  30.398  0.00  0.00    +0.000 OA
ENDBRANCH  77  78
BRANCH  77  80
ATOM     80  CB  GLY A   3       2.572  17.491  31.460  0.00  0.00    +0.000 C 
BRANCH  80  81
ATOM     81  CG  GLY A   3       1.787  18.386  32.410  0.00  0.00    +0.000 C 
BRANCH  81  82
ATOM     82  CD  GLY A   3       2.718  19.339  33.147  0.00  0.00    +0.000 C 
BRANCH  82  83
ATOM     83  CE  GLY A   3       1.983  20.138  34.217  0.00  0.00    +0.000 C 
BRANCH  83  84
ATOM     84  NZ  GLY A   3       0.999  21.090  33.635  0.00  0.00    +0.000 N 
ATOM     85  HZ1 GLY A   3       0.526  21.609  34.402  0.00  0.00    +0.000 HD
ATOM     86  HZ2 GLY A   3       0.292  20.562  33.084  0.00  0.00    +0.000 HD
ATOM     87  HZ3 GLY A   3       1.494  21.762  33.014  0.00  0.00    +0.000 HD
ENDBRANCH  83  84
ENDBRANCH  82  83
ENDBRANCH  81  82
ENDBRANCH  80  81
ENDBRANCH  77  80
ENDBRANCH  74  77
ENDBRANCH  62  73
ENDBRANCH  61  62
ENDBRANCH  59  61
ENDBRANCH  58  59
ENDBRANCH  55  58
ENDBRANCH  54  55
ENDBRANCH  22  54
ENDBRANCH  21  22
ENDBRANCH   1  21
BRANCH   1  88
ATOM     88  O   UNK A   2       5.741   6.898  25.956  0.00  0.00    +0.000 OA
BRANCH  88  89
ATOM     89  C   UNK A   2       6.653   7.433  26.588  0.00  0.00    +0.000 C 
ATOM     90  O   UNK A   2       6.459   8.352  27.396  0.00  0.00    +0.000 OA
BRANCH  89  91
ATOM     91  C   UNK A   2       8.065   6.914  26.405  0.00  0.00    +0.000 C 
BRANCH  91  92
ATOM     92  C   UNK A   2       8.277   6.185  25.068  0.00  0.00    +0.000 C 
BRANCH  92  93
ATOM     93  C   UNK A   2       7.427   4.906  24.945  0.00  0.00    +0.000 C 
ATOM     94  O   UNK A   2       7.386   4.066  25.858  0.00  0.00    +0.000 OA
ATOM     95  N   GLY A   3       6.791   4.756  23.789  0.00  0.00    +0.000 N 
ATOM     96  H   GLY A   3       6.920   5.472  23.046  0.00  0.00    +0.000 HD
BRANCH  95  97
ATOM     97  CA  GLY A   3       5.918   3.618  23.531  0.00  0.00    +0.000 C 
BRANCH  97  98
ATOM     98  C   GLY A   3       6.673   2.425  22.938  0.00  0.00    +0.000 C 
ATOM     99  N   ALA A   4       6.763   1.340  23.707  0.00  0.00    +0.000 N 
ATOM    100  H   ALA A   4       6.439   1.392  24.694  0.00  0.00    +0.000 HD
ATOM    101  O   GLY A   3       7.138   2.488  21.798  0.00  0.00    +0.000 OA
BRANCH  99 102
ATOM    102  CA  ALA A   4       7.304   0.080  23.203  0.00  0.00    +0.000 C 
BRANCH 102 103
ATOM    103  C   ALA A   4       6.513  -0.370  21.972  0.00  0.00    +0.000 C 
ATOM    104  N   ALA A   5       5.189  -0.270  22.055  0.00  0.00    +0.000 N 
ATOM    105  H   ALA A   5       4.758   0.143  22.906  0.00  0.00    +0.000 HD
ATOM    106  O   ALA A   4       7.076  -0.832  20.985  0.00  0.00    +0.000 OA
BRANCH 104 107
ATOM    107  CA  ALA A   5       4.337  -0.731  20.970  0.00  0.00    +0.000 C 
BRANCH 107 108
ATOM    108  C   ALA A   5       4.557   0.070  19.699  0.00  0.00    +0.000 C 
ATOM    109  N   ALA A   6       4.523   1.392  19.813  0.00  0.00    +0.000 N 
ATOM    110  H   ALA A   6       4.406   1.838  20.745  0.00  0.00    +0.000 HD
ATOM    111  O   ALA A   5       4.759  -0.499  18.622  0.00  0.00    +0.000 OA
BRANCH 109 112
ATOM    112  CA  ALA A   6       4.651   2.209  18.616  0.00  0.00    +0.000 C 
ATOM    113  CB  ALA A   6       4.499   3.688  18.967  0.00  0.00    +0.000 C 
BRANCH 112 114
ATOM    114  C   ALA A   6       5.986   1.939  17.921  0.00  0.00    +0.000 C 
ATOM    115  O   ALA A   6       6.038   1.752  16.719  0.00  0.00    +0.000 OA
ENDBRANCH 112 114
ENDBRANCH 109 112
ENDBRANCH 107 108
BRANCH 107 116
ATOM    116  CB  ALA A   5       2.872  -0.618  21.376  0.00  0.00    +0.000 C 
BRANCH 116 117
ATOM    117  CG  ALA A   5       1.937  -0.717  20.198  0.00  0.00    +0.000 A 
ATOM    118  CD2 ALA A   5       1.324   0.415  19.684  0.00  0.00    +0.000 A 
ATOM    119  CE2 ALA A   5       0.472   0.332  18.598  0.00  0.00    +0.000 A 
ATOM    120  CZ  ALA A   5       0.214  -0.897  18.028  0.00  0.00    +0.000 A 
ATOM    121  CE1 ALA A   5       0.809  -2.037  18.528  0.00  0.00    +0.000 A 
ATOM    122  CD1 ALA A   5       1.662  -1.945  19.597  0.00  0.00    +0.000 A 
BRANCH 120 123
ATOM    123  OH  ALA A   5      -0.639  -0.990  16.957  0.00  0.00    +0.000 OA
ATOM    124  HH  ALA A   5      -0.711  -1.936  16.675  0.00  0.00    +0.000 HD
ENDBRANCH 120 123
ENDBRANCH 116 117
ENDBRANCH 107 116
ENDBRANCH 104 107
ENDBRANCH 102 103
BRANCH 102 125
ATOM    125  CB  ALA A   4       7.229  -1.017  24.271  0.00  0.00    +0.000 C 
BRANCH 125 126
ATOM    126  CG  ALA A   4       8.046  -0.763  25.534  0.00  0.00    +0.000 C 
BRANCH 126 127
ATOM    127  CD  ALA A   4       8.172  -2.020  26.376  0.00  0.00    +0.000 C 
ATOM    128  NE2 ALA A   4       7.382  -2.108  27.451  0.00  0.00    +0.000 N 
ATOM    129 HE21 ALA A   4       7.412  -2.958  28.050  0.00  0.00    +0.000 HD
ATOM    130 HE22 ALA A   4       6.738  -1.327  27.688  0.00  0.00    +0.000 HD
ATOM    131  OE1 ALA A   4       8.955  -2.918  26.049  0.00  0.00    +0.000 OA
ENDBRANCH 126 127
ENDBRANCH 125 126
ENDBRANCH 102 125
ENDBRANCH  99 102
ENDBRANCH  97  98
BRANCH  97 132
ATOM    132  CB  GLY A   3       4.792   4.023  22.572  0.00  0.00    +0.000 C 
BRANCH 132 133
ATOM    133  O   GLY A   3       3.969   2.905  22.245  0.00  0.00    +0.000 OA
ATOM    134  H   GLY A   3       3.565   2.541  23.072  0.00  0.00    +0.000 HD
ENDBRANCH 132 133
ENDBRANCH  97 132
ENDBRANCH  95  97
ENDBRANCH  92  93
BRANCH  92 135
ATOM    135  N   UNK A   2       8.112   7.079  23.909  0.00  0.00    +0.000 N 
ATOM    136  H   UNK A   2       7.222   7.604  23.789  0.00  0.00    +0.000 HD
ATOM    137  C   THR A   1       9.085   7.225  23.014  0.00  0.00    +0.000 C 
ATOM    138  O   THR A   1      10.212   6.771  23.181  0.00  0.00    +0.000 OA
BRANCH 137 139
ATOM    139  CA  THR A   1       8.756   7.999  21.749  0.00  0.00    +0.000 C 
BRANCH 139 140
ATOM    140  N   THR A   1       9.972   8.574  21.192  0.00  0.00    +0.000 NA
ATOM    141  H   THR A   1      10.697   7.931  20.814  0.00  0.00    +0.000 HD
ENDBRANCH 139 140
BRANCH 139 142
ATOM    142  CB  THR A   1       8.091   7.060  20.725  0.00  0.00    +0.000 C 
ATOM    143  CG2 THR A   1       9.003   5.853  20.433  0.00  0.00    +0.000 C 
BRANCH 142 144
ATOM    144  OG1 THR A   1       6.853   6.576  21.258  0.00  0.00    +0.000 OA
ATOM    145  HG1 THR A   1       6.253   7.341  21.444  0.00  0.00    +0.000 HD
ENDBRANCH 142 144
ENDBRANCH 139 142
ENDBRANCH 137 139
ENDBRANCH  92 135
ENDBRANCH  91  92
ENDBRANCH  89  91
ENDBRANCH  88  89
ENDBRANCH   1  88
TORSDOF 70
REMARK  Name = ../refined-set-2016/3qin/3qin_pocket.pdb
REMARK  124 active torsions:
REMARK  status: ('A' for Active; 'I' for Inactive)
REMARK    1  A    between atoms: _1  and  _3
REMARK    2  A    between atoms: _3  and  _4
REMARK    3  A    between atoms: _3  and  _6
REMARK    4  A    between atoms: _9  and  _11
REMARK    5  A    between atoms: _11  and  _12
REMARK    6  A    between atoms: _11  and  _14
REMARK    7  A    between atoms: _14  and  _15
REMARK    8  A    between atoms: _15  and  _16
REMARK    9  A    between atoms: _15  and  _17
REMARK   10  A    between atoms: _16  and  MN_285
REMARK   11  A    between atoms: _17  and  MN_286
REMARK   12  A    between atoms: _18  and  _20
REMARK   13  A    between atoms: _20  and  _21
REMARK   14  A    between atoms: _23  and  _25
REMARK   15  A    between atoms: _25  and  _26
REMARK   16  A    between atoms: _29  and  _31
REMARK   17  A    between atoms: _31  and  _32
REMARK   18  A    between atoms: _35  and  _37
REMARK   19  A    between atoms: _37  and  _38
REMARK   20  A    between atoms: _37  and  _40
REMARK   21  A    between atoms: _40  and  _41
REMARK   22  A    between atoms: _46  and  _48
REMARK   23  A    between atoms: _48  and  _49
REMARK   24  A    between atoms: _48  and  _51
REMARK   25  A    between atoms: _51  and  _52
REMARK   26  A    between atoms: _52  and  _53
REMARK   27  A    between atoms: _58  and  _60
REMARK   28  A    between atoms: _60  and  _61
REMARK   29  A    between atoms: _60  and  _63
REMARK   30  A    between atoms: _63  and  _64
REMARK   31  A    between atoms: _67  and  _69
REMARK   32  A    between atoms: _69  and  _70
REMARK   33  A    between atoms: _69  and  _72
REMARK   34  A    between atoms: _72  and  _73
REMARK   35  A    between atoms: _73  and  _74
REMARK   36  A    between atoms: _74  and  _75
REMARK   37  A    between atoms: _75  and  MN_285
REMARK   38  A    between atoms: _77  and  _79
REMARK   39  A    between atoms: _79  and  _80
REMARK   40  A    between atoms: _79  and  _82
REMARK   41  A    between atoms: _82  and  _83
REMARK   42  A    between atoms: _86  and  _88
REMARK   43  A    between atoms: _88  and  _89
REMARK   44  A    between atoms: _88  and  _91
REMARK   45  A    between atoms: _91  and  _92
REMARK   46  A    between atoms: _92  and  _94
REMARK   47  A    between atoms: _94  and  MN_285
REMARK   48  A    between atoms: _95  and  _97
REMARK   49  A    between atoms: _97  and  _98
REMARK   50  A    between atoms: _97  and  _100
REMARK   51  A    between atoms: _100  and  _101
REMARK   52  A    between atoms: _103  and  _105
REMARK   53  A    between atoms: _105  and  _106
REMARK   54  A    between atoms: _105  and  _108
REMARK   55  A    between atoms: _108  and  _109
REMARK   56  A    between atoms: _109  and  _110
REMARK   57  A    between atoms: _115  and  _117
REMARK   58  A    between atoms: _117  and  _118
REMARK   59  A    between atoms: _117  and  _120
REMARK   60  A    between atoms: _120  and  _121
REMARK   61  A    between atoms: _126  and  _127
REMARK   62  A    between atoms: _129  and  _131
REMARK   63  A    between atoms: _131  and  _132
REMARK   64  A    between atoms: _135  and  _137
REMARK   65  A    between atoms: _137  and  _138
REMARK   66  A    between atoms: _137  and  _140
REMARK   67  A    between atoms: _140  and  _141
REMARK   68  A    between atoms: _151  and  _153
REMARK   69  A    between atoms: _153  and  _154
REMARK   70  A    between atoms: _153  and  _156
REMARK   71  A    between atoms: _160  and  _161
REMARK   72  A    between atoms: _166  and  _168
REMARK   73  A    between atoms: _168  and  _169
REMARK   74  A    between atoms: _172  and  _174
REMARK   75  A    between atoms: _174  and  _175
REMARK   76  A    between atoms: _174  and  _177
REMARK   77  A    between atoms: _177  and  _178
REMARK   78  A    between atoms: _183  and  _185
REMARK   79  A    between atoms: _185  and  _186
REMARK   80  A    between atoms: _185  and  _188
REMARK   81  A    between atoms: _188  and  _189
REMARK   82  A    between atoms: _189  and  _190
REMARK   83  A    between atoms: _190  and  _191
REMARK   84  A    between atoms: _191  and  _192
REMARK   85  A    between atoms: _196  and  _198
REMARK   86  A    between atoms: _198  and  _199
REMARK   87  A    between atoms: _201  and  _203
REMARK   88  A    between atoms: _203  and  _204
REMARK   89  A    between atoms: _203  and  _206
REMARK   90  A    between atoms: _206  and  _207
REMARK   91  A    between atoms: _212  and  _214
REMARK   92  A    between atoms: _214  and  _215
REMARK   93  A    between atoms: _214  and  _217
REMARK   94  A    between atoms: _217  and  _218
REMARK   95  A    between atoms: _218  and  _219
REMARK   96  A    between atoms: _222  and  _224
REMARK   97  A    between atoms: _224  and  _225
REMARK   98  A    between atoms: _224  and  _227
REMARK   99  A    between atoms: _230  and  _232
REMARK  100  A    between atoms: _232  and  _233
REMARK  101  A    between atoms: _232  and  _235
REMARK  102  A    between atoms: _235  and  _236
REMARK  103  A    between atoms: _236  and  _238
REMARK  104  A    between atoms: _238  and  MN_286
REMARK  105  A    between atoms: _239  and  _241
REMARK  106  A    between atoms: _241  and  _242
REMARK  107  A    between atoms: _241  and  _244
REMARK  108  A    between atoms: _244  and  _245
REMARK  109  A    between atoms: _245  and  _246
REMARK  110  A    between atoms: _246  and  _247
REMARK  111  A    between atoms: _247  and  _248
REMARK  112  A    between atoms: _252  and  _254
REMARK  113  A    between atoms: _254  and  _255
REMARK  114  A    between atoms: _254  and  _257
REMARK  115  A    between atoms: _260  and  _262
REMARK  116  A    between atoms: _262  and  _263
REMARK  117  A    between atoms: _262  and  _265
REMARK  118  A    between atoms: _265  and  _266
REMARK  119  A    between atoms: _268  and  _270
REMARK  120  A    between atoms: _270  and  _271
REMARK  121  A    between atoms: _270  and  _273
REMARK  122  A    between atoms: _273  and  _274
REMARK  123  A    between atoms: _274  and  _275
REMARK  124  A    between atoms: _275  and  _276
REMARK                            x       y       z     vdW  Elec       q    Type
REMARK                         _______ _______ _______ _____ _____    ______ ____
ROOT
ATOM      1  C   ASN A   1      -2.468   4.054  23.247  0.00  0.00    +0.239 C 
ATOM      2  O   ASN A   1      -1.771   4.951  22.767  0.00  0.00    -0.274 OA
ATOM      3  N   GLN A   2      -2.468   2.812  22.763  0.00  0.00    -0.298 N 
ATOM      4  H   GLN A   2      -3.075   2.094  23.207  0.00  0.00    +0.150 HD
ENDROOT
BRANCH   1   5
ATOM      5  CA  ASN A   1      -3.413   4.350  24.418  0.00  0.00    +0.154 C 
BRANCH   5   6
ATOM      6  N   ASN A   1      -4.759   3.895  24.110  0.00  0.00    -0.238 NA
ATOM      7  H   ASN A   1      -5.247   3.239  24.753  0.00  0.00    +0.142 HD
ENDBRANCH   5   6
BRANCH   5   8
ATOM      8  CB  ASN A   1      -2.902   3.740  25.727  0.00  0.00    +0.111 C 
BRANCH   8   9
ATOM      9  CG  ASN A   1      -3.489   4.418  26.960  0.00  0.00    +0.221 C 
ATOM     10  ND2 ASN A   1      -4.108   3.625  27.827  0.00  0.00    -0.329 N 
ATOM     11 HD21 ASN A   1      -4.524   4.025  28.692  0.00  0.00    +0.145 HD
ATOM     12 HD22 ASN A   1      -4.177   2.604  27.641  0.00  0.00    +0.145 HD
ATOM     13  OD1 ASN A   1      -3.380   5.638  27.135  0.00  0.00    -0.275 OA
ENDBRANCH   8   9
ENDBRANCH   5   8
ENDBRANCH   1   5
BRANCH   3  14
ATOM     14  CA  GLN A   2      -1.634   2.436  21.622  0.00  0.00    +0.137 C 
BRANCH  14  15
ATOM     15  C   GLN A   2      -1.896   3.291  20.392  0.00  0.00    +0.227 C 
ATOM     16  O   GLN A   2      -0.959   3.703  19.699  0.00  0.00    -0.286 OA
ENDBRANCH  14  15
BRANCH  14  17
ATOM     17  CB  GLN A   2      -1.829   0.951  21.260  0.00  0.00    +0.037 C 
BRANCH  17  18
ATOM     18  CG  GLN A   2      -1.209  -0.002  22.243  0.00  0.00    +0.087 C 
BRANCH  18  19
ATOM     19  CD  GLN A   2      -1.356  -1.459  21.813  0.00  0.00    +0.219 C 
ATOM     20  NE2 GLN A   2      -0.583  -2.334  22.431  0.00  0.00    -0.329 N 
ATOM     21 HE21 GLN A   2       0.072  -2.016  23.174  0.00  0.00    +0.145 HD
ATOM     22 HE22 GLN A   2      -0.629  -3.341  22.175  0.00  0.00    +0.145 HD
ATOM     23  OE1 GLN A   2      -2.147  -1.784  20.928  0.00  0.00    -0.275 OA
ENDBRANCH  18  19
ENDBRANCH  17  18
ENDBRANCH  14  17
ENDBRANCH   3  14
TORSDOF 9
REMARK  Name = ../refined-set-2016/3qin/3qin_pocket.pdb
REMARK  124 active torsions:
REMARK  status: ('A' for Active; 'I' for Inactive)
REMARK    1  A    between atoms: _1  and  _3
REMARK    2  A    between atoms: _3  and  _4
REMARK    3  A    between atoms: _3  and  _6
REMARK    4  A    between atoms: _9  and  _11
REMARK    5  A    between atoms: _11  and  _12
REMARK    6  A    between atoms: _11  and  _14
REMARK    7  A    between atoms: _14  and  _15
REMARK    8  A    between atoms: _15  and  _16
REMARK    9  A    between atoms: _15  and  _17
REMARK   10  A    between atoms: _16  and  MN_285
REMARK   11  A    between atoms: _17  and  MN_286
REMARK   12  A    between atoms: _18  and  _20
REMARK   13  A    between atoms: _20  and  _21
REMARK   14  A    between atoms: _23  and  _25
REMARK   15  A    between atoms: _25  and  _26
REMARK   16  A    between atoms: _29  and  _31
REMARK   17  A    between atoms: _31  and  _32
REMARK   18  A    between atoms: _35  and  _37
REMARK   19  A    between atoms: _37  and  _38
REMARK   20  A    between atoms: _37  and  _40
REMARK   21  A    between atoms: _40  and  _41
REMARK   22  A    between atoms: _46  and  _48
REMARK   23  A    between atoms: _48  and  _49
REMARK   24  A    between atoms: _48  and  _51
REMARK   25  A    between atoms: _51  and  _52
REMARK   26  A    between atoms: _52  and  _53
REMARK   27  A    between atoms: _58  and  _60
REMARK   28  A    between atoms: _60  and  _61
REMARK   29  A    between atoms: _60  and  _63
REMARK   30  A    between atoms: _63  and  _64
REMARK   31  A    between atoms: _67  and  _69
REMARK   32  A    between atoms: _69  and  _70
REMARK   33  A    between atoms: _69  and  _72
REMARK   34  A    between atoms: _72  and  _73
REMARK   35  A    between atoms: _73  and  _74
REMARK   36  A    between atoms: _74  and  _75
REMARK   37  A    between atoms: _75  and  MN_285
REMARK   38  A    between atoms: _77  and  _79
REMARK   39  A    between atoms: _79  and  _80
REMARK   40  A    between atoms: _79  and  _82
REMARK   41  A    between atoms: _82  and  _83
REMARK   42  A    between atoms: _86  and  _88
REMARK   43  A    between atoms: _88  and  _89
REMARK   44  A    between atoms: _88  and  _91
REMARK   45  A    between atoms: _91  and  _92
REMARK   46  A    between atoms: _92  and  _94
REMARK   47  A    between atoms: _94  and  MN_285
REMARK   48  A    between atoms: _95  and  _97
REMARK   49  A    between atoms: _97  and  _98
REMARK   50  A    between atoms: _97  and  _100
REMARK   51  A    between atoms: _100  and  _101
REMARK   52  A    between atoms: _103  and  _105
REMARK   53  A    between atoms: _105  and  _106
REMARK   54  A    between atoms: _105  and  _108
REMARK   55  A    between atoms: _108  and  _109
REMARK   56  A    between atoms: _109  and  _110
REMARK   57  A    between atoms: _115  and  _117
REMARK   58  A    between atoms: _117  and  _118
REMARK   59  A    between atoms: _117  and  _120
REMARK   60  A    between atoms: _120  and  _121
REMARK   61  A    between atoms: _126  and  _127
REMARK   62  A    between atoms: _129  and  _131
REMARK   63  A    between atoms: _131  and  _132
REMARK   64  A    between atoms: _135  and  _137
REMARK   65  A    between atoms: _137  and  _138
REMARK   66  A    between atoms: _137  and  _140
REMARK   67  A    between atoms: _140  and  _141
REMARK   68  A    between atoms: _151  and  _153
REMARK   69  A    between atoms: _153  and  _154
REMARK   70  A    between atoms: _153  and  _156
REMARK   71  A    between atoms: _160  and  _161
REMARK   72  A    between atoms: _166  and  _168
REMARK   73  A    between atoms: _168  and  _169
REMARK   74  A    between atoms: _172  and  _174
REMARK   75  A    between atoms: _174  and  _175
REMARK   76  A    between atoms: _174  and  _177
REMARK   77  A    between atoms: _177  and  _178
REMARK   78  A    between atoms: _183  and  _185
REMARK   79  A    between atoms: _185  and  _186
REMARK   80  A    between atoms: _185  and  _188
REMARK   81  A    between atoms: _188  and  _189
REMARK   82  A    between atoms: _189  and  _190
REMARK   83  A    between atoms: _190  and  _191
REMARK   84  A    between atoms: _191  and  _192
REMARK   85  A    between atoms: _196  and  _198
REMARK   86  A    between atoms: _198  and  _199
REMARK   87  A    between atoms: _201  and  _203
REMARK   88  A    between atoms: _203  and  _204
REMARK   89  A    between atoms: _203  and  _206
REMARK   90  A    between atoms: _206  and  _207
REMARK   91  A    between atoms: _212  and  _214
REMARK   92  A    between atoms: _214  and  _215
REMARK   93  A    between atoms: _214  and  _217
REMARK   94  A    between atoms: _217  and  _218
REMARK   95  A    between atoms: _218  and  _219
REMARK   96  A    between atoms: _222  and  _224
REMARK   97  A    between atoms: _224  and  _225
REMARK   98  A    between atoms: _224  and  _227
REMARK   99  A    between atoms: _230  and  _232
REMARK  100  A    between atoms: _232  and  _233
REMARK  101  A    between atoms: _232  and  _235
REMARK  102  A    between atoms: _235  and  _236
REMARK  103  A    between atoms: _236  and  _238
REMARK  104  A    between atoms: _238  and  MN_286
REMARK  105  A    between atoms: _239  and  _241
REMARK  106  A    between atoms: _241  and  _242
REMARK  107  A    between atoms: _241  and  _244
REMARK  108  A    between atoms: _244  and  _245
REMARK  109  A    between atoms: _245  and  _246
REMARK  110  A    between atoms: _246  and  _247
REMARK  111  A    between atoms: _247  and  _248
REMARK  112  A    between atoms: _252  and  _254
REMARK  113  A    between atoms: _254  and  _255
REMARK  114  A    between atoms: _254  and  _257
REMARK  115  A    between atoms: _260  and  _262
REMARK  116  A    between atoms: _262  and  _263
REMARK  117  A    between atoms: _262  and  _265
REMARK  118  A    between atoms: _265  and  _266
REMARK  119  A    between atoms: _268  and  _270
REMARK  120  A    between atoms: _270  and  _271
REMARK  121  A    between atoms: _270  and  _273
REMARK  122  A    between atoms: _273  and  _274
REMARK  123  A    between atoms: _274  and  _275
REMARK  124  A    between atoms: _275  and  _276
REMARK                            x       y       z     vdW  Elec       q    Type
REMARK                         _______ _______ _______ _____ _____    ______ ____
ROOT
ATOM      1  C   PRO A   3      10.610   6.219  29.639  0.00  0.00    +0.241 C 
ATOM      2  O   PRO A   3      11.040   7.350  29.842  0.00  0.00    -0.273 OA
ATOM      3  N   ALA A   4       9.338   5.884  29.803  0.00  0.00    -0.297 N 
ATOM      4  H   ALA A   4       9.030   4.924  29.549  0.00  0.00    +0.150 HD
ENDROOT
BRANCH   1   7
ATOM      5  C   VAL A   2      12.061   5.896  26.941  0.00  0.00    +0.244 C 
ATOM      6  N   PRO A   3      12.487   5.588  28.174  0.00  0.00    -0.272 N 
ATOM      7  CA  PRO A   3      11.536   5.105  29.179  0.00  0.00    +0.152 C 
ATOM      8  CB  PRO A   3      12.438   4.640  30.332  0.00  0.00    +0.031 C 
ATOM      9  CG  PRO A   3      13.744   5.307  30.116  0.00  0.00    +0.024 C 
ATOM     10  CD  PRO A   3      13.884   5.473  28.627  0.00  0.00    +0.094 C 
ATOM     11  O   VAL A   2      10.880   5.788  26.590  0.00  0.00    -0.273 OA
BRANCH   5  12
ATOM     12  CA  VAL A   2      13.110   6.360  25.950  0.00  0.00    +0.149 C 
BRANCH  12  14
ATOM     13  C   TRP A   1      13.386   5.469  23.706  0.00  0.00    +0.239 C 
ATOM     14  N   VAL A   2      12.618   6.051  24.617  0.00  0.00    -0.297 N 
ATOM     15  H   VAL A   2      11.637   6.293  24.371  0.00  0.00    +0.150 HD
ATOM     16  O   TRP A   1      14.599   5.273  23.851  0.00  0.00    -0.274 OA
BRANCH  13  17
ATOM     17  CA  TRP A   1      12.676   5.029  22.456  0.00  0.00    +0.149 C 
BRANCH  17  18
ATOM     18  N   TRP A   1      13.504   5.277  21.281  0.00  0.00    -0.238 NA
ATOM     19  H   TRP A   1      14.339   4.678  21.121  0.00  0.00    +0.142 HD
ENDBRANCH  17  18
BRANCH  17  20
ATOM     20  CB  TRP A   1      12.383   3.529  22.587  0.00  0.00    +0.054 C 
BRANCH  20  21
ATOM     21  CG  TRP A   1      11.605   3.148  23.795  0.00  0.00    -0.002 A 
ATOM     22  CD2 TRP A   1      12.132   2.709  25.056  0.00  0.00    +0.013 A 
ATOM     23  CE2 TRP A   1      11.032   2.433  25.891  0.00  0.00    +0.056 A 
ATOM     24  CZ2 TRP A   1      11.184   1.965  27.202  0.00  0.00    +0.017 A 
ATOM     25  CH2 TRP A   1      12.459   1.792  27.668  0.00  0.00    +0.001 A 
ATOM     26  CZ3 TRP A   1      13.575   2.059  26.863  0.00  0.00    +0.000 A 
ATOM     27  NE1 TRP A   1       9.895   2.689  25.170  0.00  0.00    -0.352 N 
ATOM     28  HE1 TRP A   1       8.922   2.581  25.520  0.00  0.00    +0.166 HD
ATOM     29  CE3 TRP A   1      13.428   2.521  25.558  0.00  0.00    +0.001 A 
ATOM     30  CD1 TRP A   1      10.246   3.110  23.913  0.00  0.00    +0.068 A 
ENDBRANCH  20  21
ENDBRANCH  17  20
ENDBRANCH  13  17
ENDBRANCH  12  14
BRANCH  12  31
ATOM     31  CB  VAL A   2      13.355   7.847  26.128  0.00  0.00    +0.027 C 
ATOM     32  CG2 VAL A   2      12.058   8.652  25.911  0.00  0.00    +0.002 C 
ATOM     33  CG1 VAL A   2      14.473   8.325  25.210  0.00  0.00    +0.002 C 
ENDBRANCH  12  31
ENDBRANCH   5  12
ENDBRANCH   1   7
BRANCH   3  34
ATOM     34  CA  ALA A   4       8.362   6.826  30.330  0.00  0.00    +0.149 C 
ATOM     35  CB  ALA A   4       6.953   6.257  30.159  0.00  0.00    +0.031 C 
BRANCH  34  36
ATOM     36  C   ALA A   4       8.618   7.170  31.799  0.00  0.00    +0.241 C 
ATOM     37  O   ALA A   4       9.114   6.343  32.571  0.00  0.00    -0.273 OA
ATOM     38  N   HIS A   5       8.299   8.410  32.161  0.00  0.00    -0.297 N 
ATOM     39  H   HIS A   5       8.055   9.103  31.425  0.00  0.00    +0.150 HD
BRANCH  38  40
ATOM     40  CA  HIS A   5       8.281   8.825  33.557  0.00  0.00    +0.155 C 
BRANCH  40  41
ATOM     41  C   HIS A   5       9.623   8.642  34.261  0.00  0.00    +0.241 C 
ATOM     42  O   HIS A   5       9.681   8.266  35.439  0.00  0.00    -0.273 OA
ATOM     43  N   LYS A   6      10.694   8.948  33.536  0.00  0.00    -0.297 N 
ATOM     44  H   LYS A   6      10.564   9.203  32.536  0.00  0.00    +0.150 HD
BRANCH  43  45
ATOM     45  CA  LYS A   6      12.045   8.941  34.087  0.00  0.00    +0.149 C 
BRANCH  45  46
ATOM     46  C   LYS A   6      12.735  10.290  33.945  0.00  0.00    +0.241 C 
ATOM     47  O   LYS A   6      13.962  10.360  33.888  0.00  0.00    -0.273 OA
ATOM     48  N   GLY A   7      11.941  11.351  33.855  0.00  0.00    -0.296 N 
ATOM     49  H   GLY A   7      10.917  11.213  33.734  0.00  0.00    +0.150 HD
BRANCH  48  50
ATOM     50  CA  GLY A   7      12.473  12.698  33.922  0.00  0.00    +0.163 C 
BRANCH  50  51
ATOM     51  C   GLY A   7      13.219  13.176  32.694  0.00  0.00    +0.229 C 
ATOM     52  O   GLY A   7      14.008  14.119  32.774  0.00  0.00    -0.286 OA
ENDBRANCH  50  51
ENDBRANCH  48  50
ENDBRANCH  45  46
BRANCH  45  53
ATOM     53  CB  LYS A   6      12.904   7.864  33.438  0.00  0.00    +0.029 C 
BRANCH  53  54
ATOM     54  CG  LYS A   6      12.397   6.466  33.709  0.00  0.00    +0.000 C 
BRANCH  54  55
ATOM     55  CD  LYS A   6      13.516   5.433  33.688  0.00  0.00    -0.024 C 
BRANCH  55  56
ATOM     56  CE  LYS A   6      13.108   4.203  34.500  0.00  0.00    -0.086 C 
BRANCH  56  57
ATOM     57  NZ  LYS A   6      14.073   3.072  34.378  0.00  0.00    +0.380 N 
ATOM     58  HZ1 LYS A   6      13.740   2.270  34.951  0.00  0.00    -0.089 HD
ATOM     59  HZ2 LYS A   6      15.008   3.377  34.717  0.00  0.00    -0.089 HD
ATOM     60  HZ3 LYS A   6      14.142   2.783  33.381  0.00  0.00    -0.089 HD
ENDBRANCH  56  57
ENDBRANCH  55  56
ENDBRANCH  54  55
ENDBRANCH  53  54
ENDBRANCH  45  53
ENDBRANCH  43  45
ENDBRANCH  40  41
BRANCH  40  61
ATOM     61  CB  HIS A   5       7.134   8.119  34.287  0.00  0.00    +0.076 C 
BRANCH  61  62
ATOM     62  CG  HIS A   5       5.792   8.494  33.749  0.00  0.00    +0.082 A 
ATOM     63  ND1 HIS A   5       5.237   9.744  33.964  0.00  0.00    -0.227 NA
ATOM     64  CE1 HIS A   5       4.077   9.818  33.345  0.00  0.00    +0.199 A 
ATOM     65  NE2 HIS A   5       3.879   8.686  32.686  0.00  0.00    -0.221 NA
ATOM     66  CD2 HIS A   5       4.941   7.845  32.921  0.00  0.00    +0.115 A 
ENDBRANCH  61  62
ENDBRANCH  40  61
ENDBRANCH  38  40
ENDBRANCH  34  36
ENDBRANCH   3  34
TORSDOF 23
REMARK  Name = ../refined-set-2016/3qin/3qin_pocket.pdb
REMARK  124 active torsions:
REMARK  status: ('A' for Active; 'I' for Inactive)
REMARK    1  A    between atoms: _1  and  _3
REMARK    2  A    between atoms: _3  and  _4
REMARK    3  A    between atoms: _3  and  _6
REMARK    4  A    between atoms: _9  and  _11
REMARK    5  A    between atoms: _11  and  _12
REMARK    6  A    between atoms: _11  and  _14
REMARK    7  A    between atoms: _14  and  _15
REMARK    8  A    between atoms: _15  and  _16
REMARK    9  A    between atoms: _15  and  _17
REMARK   10  A    between atoms: _16  and  MN_285
REMARK   11  A    between atoms: _17  and  MN_286
REMARK   12  A    between atoms: _18  and  _20
REMARK   13  A    between atoms: _20  and  _21
REMARK   14  A    between atoms: _23  and  _25
REMARK   15  A    between atoms: _25  and  _26
REMARK   16  A    between atoms: _29  and  _31
REMARK   17  A    between atoms: _31  and  _32
REMARK   18  A    between atoms: _35  and  _37
REMARK   19  A    between atoms: _37  and  _38
REMARK   20  A    between atoms: _37  and  _40
REMARK   21  A    between atoms: _40  and  _41
REMARK   22  A    between atoms: _46  and  _48
REMARK   23  A    between atoms: _48  and  _49
REMARK   24  A    between atoms: _48  and  _51
REMARK   25  A    between atoms: _51  and  _52
REMARK   26  A    between atoms: _52  and  _53
REMARK   27  A    between atoms: _58  and  _60
REMARK   28  A    between atoms: _60  and  _61
REMARK   29  A    between atoms: _60  and  _63
REMARK   30  A    between atoms: _63  and  _64
REMARK   31  A    between atoms: _67  and  _69
REMARK   32  A    between atoms: _69  and  _70
REMARK   33  A    between atoms: _69  and  _72
REMARK   34  A    between atoms: _72  and  _73
REMARK   35  A    between atoms: _73  and  _74
REMARK   36  A    between atoms: _74  and  _75
REMARK   37  A    between atoms: _75  and  MN_285
REMARK   38  A    between atoms: _77  and  _79
REMARK   39  A    between atoms: _79  and  _80
REMARK   40  A    between atoms: _79  and  _82
REMARK   41  A    between atoms: _82  and  _83
REMARK   42  A    between atoms: _86  and  _88
REMARK   43  A    between atoms: _88  and  _89
REMARK   44  A    between atoms: _88  and  _91
REMARK   45  A    between atoms: _91  and  _92
REMARK   46  A    between atoms: _92  and  _94
REMARK   47  A    between atoms: _94  and  MN_285
REMARK   48  A    between atoms: _95  and  _97
REMARK   49  A    between atoms: _97  and  _98
REMARK   50  A    between atoms: _97  and  _100
REMARK   51  A    between atoms: _100  and  _101
REMARK   52  A    between atoms: _103  and  _105
REMARK   53  A    between atoms: _105  and  _106
REMARK   54  A    between atoms: _105  and  _108
REMARK   55  A    between atoms: _108  and  _109
REMARK   56  A    between atoms: _109  and  _110
REMARK   57  A    between atoms: _115  and  _117
REMARK   58  A    between atoms: _117  and  _118
REMARK   59  A    between atoms: _117  and  _120
REMARK   60  A    between atoms: _120  and  _121
REMARK   61  A    between atoms: _126  and  _127
REMARK   62  A    between atoms: _129  and  _131
REMARK   63  A    between atoms: _131  and  _132
REMARK   64  A    between atoms: _135  and  _137
REMARK   65  A    between atoms: _137  and  _138
REMARK   66  A    between atoms: _137  and  _140
REMARK   67  A    between atoms: _140  and  _141
REMARK   68  A    between atoms: _151  and  _153
REMARK   69  A    between atoms: _153  and  _154
REMARK   70  A    between atoms: _153  and  _156
REMARK   71  A    between atoms: _160  and  _161
REMARK   72  A    between atoms: _166  and  _168
REMARK   73  A    between atoms: _168  and  _169
REMARK   74  A    between atoms: _172  and  _174
REMARK   75  A    between atoms: _174  and  _175
REMARK   76  A    between atoms: _174  and  _177
REMARK   77  A    between atoms: _177  and  _178
REMARK   78  A    between atoms: _183  and  _185
REMARK   79  A    between atoms: _185  and  _186
REMARK   80  A    between atoms: _185  and  _188
REMARK   81  A    between atoms: _188  and  _189
REMARK   82  A    between atoms: _189  and  _190
REMARK   83  A    between atoms: _190  and  _191
REMARK   84  A    between atoms: _191  and  _192
REMARK   85  A    between atoms: _196  and  _198
REMARK   86  A    between atoms: _198  and  _199
REMARK   87  A    between atoms: _201  and  _203
REMARK   88  A    between atoms: _203  and  _204
REMARK   89  A    between atoms: _203  and  _206
REMARK   90  A    between atoms: _206  and  _207
REMARK   91  A    between atoms: _212  and  _214
REMARK   92  A    between atoms: _214  and  _215
REMARK   93  A    between atoms: _214  and  _217
REMARK   94  A    between atoms: _217  and  _218
REMARK   95  A    between atoms: _218  and  _219
REMARK   96  A    between atoms: _222  and  _224
REMARK   97  A    between atoms: _224  and  _225
REMARK   98  A    between atoms: _224  and  _227
REMARK   99  A    between atoms: _230  and  _232
REMARK  100  A    between atoms: _232  and  _233
REMARK  101  A    between atoms: _232  and  _235
REMARK  102  A    between atoms: _235  and  _236
REMARK  103  A    between atoms: _236  and  _238
REMARK  104  A    between atoms: _238  and  MN_286
REMARK  105  A    between atoms: _239  and  _241
REMARK  106  A    between atoms: _241  and  _242
REMARK  107  A    between atoms: _241  and  _244
REMARK  108  A    between atoms: _244  and  _245
REMARK  109  A    between atoms: _245  and  _246
REMARK  110  A    between atoms: _246  and  _247
REMARK  111  A    between atoms: _247  and  _248
REMARK  112  A    between atoms: _252  and  _254
REMARK  113  A    between atoms: _254  and  _255
REMARK  114  A    between atoms: _254  and  _257
REMARK  115  A    between atoms: _260  and  _262
REMARK  116  A    between atoms: _262  and  _263
REMARK  117  A    between atoms: _262  and  _265
REMARK  118  A    between atoms: _265  and  _266
REMARK  119  A    between atoms: _268  and  _270
REMARK  120  A    between atoms: _270  and  _271
REMARK  121  A    between atoms: _270  and  _273
REMARK  122  A    between atoms: _273  and  _274
REMARK  123  A    between atoms: _274  and  _275
REMARK  124  A    between atoms: _275  and  _276
REMARK                            x       y       z     vdW  Elec       q    Type
REMARK                         _______ _______ _______ _____ _____    ______ ____
ROOT
ATOM      1  C   ASN A   1       8.108  13.759  28.398  0.00  0.00    +0.239 C 
ATOM      2  N   GLU A   2       8.608  14.269  29.518  0.00  0.00    -0.298 N 
ATOM      3  H   GLU A   2       9.636  14.389  29.620  0.00  0.00    +0.150 HD
ATOM      4  O   ASN A   1       6.901  13.551  28.254  0.00  0.00    -0.274 OA
ENDROOT
BRANCH   1   5
ATOM      5  CA  ASN A   1       9.098  13.440  27.274  0.00  0.00    +0.154 C 
BRANCH   5   6
ATOM      6  N   ASN A   1      10.071  14.507  27.049  0.00  0.00    -0.238 NA
ATOM      7  H   ASN A   1      11.080  14.318  27.215  0.00  0.00    +0.142 HD
ENDBRANCH   5   6
BRANCH   5   8
ATOM      8  CB  ASN A   1       9.813  12.111  27.529  0.00  0.00    +0.111 C 
BRANCH   8   9
ATOM      9  CG  ASN A   1       8.861  11.012  27.953  0.00  0.00    +0.221 C 
ATOM     10  OD1 ASN A   1       8.722  10.724  29.145  0.00  0.00    -0.275 OA
ATOM     11  ND2 ASN A   1       8.188  10.409  26.990  0.00  0.00    -0.329 N 
ATOM     12 HD21 ASN A   1       7.508   9.658  27.223  0.00  0.00    +0.145 HD
ATOM     13 HD22 ASN A   1       8.338  10.685  25.999  0.00  0.00    +0.145 HD
ENDBRANCH   8   9
ENDBRANCH   5   8
ENDBRANCH   1   5
BRANCH   2  14
ATOM     14  CA  GLU A   2       7.716  14.662  30.607  0.00  0.00    +0.137 C 
BRANCH  14  15
ATOM     15  C   GLU A   2       6.758  15.778  30.183  0.00  0.00    +0.227 C 
ATOM     16  O   GLU A   2       5.574  15.750  30.542  0.00  0.00    -0.286 OA
ENDBRANCH  14  15
BRANCH  14  17
ATOM     17  CB  GLU A   2       8.511  15.034  31.866  0.00  0.00    +0.039 C 
BRANCH  17  18
ATOM     18  CG  GLU A   2       9.376  13.873  32.402  0.00  0.00    +0.116 C 
BRANCH  18  19
ATOM     19  CD  GLU A   2       8.580  12.695  32.999  0.00  0.00    +0.365 C 
ATOM     20  OE2 GLU A   2       9.173  11.944  33.800  0.00  0.00    -0.246 OA
ATOM     21  OE1 GLU A   2       7.378  12.509  32.685  0.00  0.00    -0.246 OA
ENDBRANCH  18  19
ENDBRANCH  17  18
ENDBRANCH  14  17
ENDBRANCH   2  14
TORSDOF 9
REMARK  Name = ../refined-set-2016/3qin/3qin_pocket.pdb
REMARK  124 active torsions:
REMARK  status: ('A' for Active; 'I' for Inactive)
REMARK    1  A    between atoms: _1  and  _3
REMARK    2  A    between atoms: _3  and  _4
REMARK    3  A    between atoms: _3  and  _6
REMARK    4  A    between atoms: _9  and  _11
REMARK    5  A    between atoms: _11  and  _12
REMARK    6  A    between atoms: _11  and  _14
REMARK    7  A    between atoms: _14  and  _15
REMARK    8  A    between atoms: _15  and  _16
REMARK    9  A    between atoms: _15  and  _17
REMARK   10  A    between atoms: _16  and  MN_285
REMARK   11  A    between atoms: _17  and  MN_286
REMARK   12  A    between atoms: _18  and  _20
REMARK   13  A    between atoms: _20  and  _21
REMARK   14  A    between atoms: _23  and  _25
REMARK   15  A    between atoms: _25  and  _26
REMARK   16  A    between atoms: _29  and  _31
REMARK   17  A    between atoms: _31  and  _32
REMARK   18  A    between atoms: _35  and  _37
REMARK   19  A    between atoms: _37  and  _38
REMARK   20  A    between atoms: _37  and  _40
REMARK   21  A    between atoms: _40  and  _41
REMARK   22  A    between atoms: _46  and  _48
REMARK   23  A    between atoms: _48  and  _49
REMARK   24  A    between atoms: _48  and  _51
REMARK   25  A    between atoms: _51  and  _52
REMARK   26  A    between atoms: _52  and  _53
REMARK   27  A    between atoms: _58  and  _60
REMARK   28  A    between atoms: _60  and  _61
REMARK   29  A    between atoms: _60  and  _63
REMARK   30  A    between atoms: _63  and  _64
REMARK   31  A    between atoms: _67  and  _69
REMARK   32  A    between atoms: _69  and  _70
REMARK   33  A    between atoms: _69  and  _72
REMARK   34  A    between atoms: _72  and  _73
REMARK   35  A    between atoms: _73  and  _74
REMARK   36  A    between atoms: _74  and  _75
REMARK   37  A    between atoms: _75  and  MN_285
REMARK   38  A    between atoms: _77  and  _79
REMARK   39  A    between atoms: _79  and  _80
REMARK   40  A    between atoms: _79  and  _82
REMARK   41  A    between atoms: _82  and  _83
REMARK   42  A    between atoms: _86  and  _88
REMARK   43  A    between atoms: _88  and  _89
REMARK   44  A    between atoms: _88  and  _91
REMARK   45  A    between atoms: _91  and  _92
REMARK   46  A    between atoms: _92  and  _94
REMARK   47  A    between atoms: _94  and  MN_285
REMARK   48  A    between atoms: _95  and  _97
REMARK   49  A    between atoms: _97  and  _98
REMARK   50  A    between atoms: _97  and  _100
REMARK   51  A    between atoms: _100  and  _101
REMARK   52  A    between atoms: _103  and  _105
REMARK   53  A    between atoms: _105  and  _106
REMARK   54  A    between atoms: _105  and  _108
REMARK   55  A    between atoms: _108  and  _109
REMARK   56  A    between atoms: _109  and  _110
REMARK   57  A    between atoms: _115  and  _117
REMARK   58  A    between atoms: _117  and  _118
REMARK   59  A    between atoms: _117  and  _120
REMARK   60  A    between atoms: _120  and  _121
REMARK   61  A    between atoms: _126  and  _127
REMARK   62  A    between atoms: _129  and  _131
REMARK   63  A    between atoms: _131  and  _132
REMARK   64  A    between atoms: _135  and  _137
REMARK   65  A    between atoms: _137  and  _138
REMARK   66  A    between atoms: _137  and  _140
REMARK   67  A    between atoms: _140  and  _141
REMARK   68  A    between atoms: _151  and  _153
REMARK   69  A    between atoms: _153  and  _154
REMARK   70  A    between atoms: _153  and  _156
REMARK   71  A    between atoms: _160  and  _161
REMARK   72  A    between atoms: _166  and  _168
REMARK   73  A    between atoms: _168  and  _169
REMARK   74  A    between atoms: _172  and  _174
REMARK   75  A    between atoms: _174  and  _175
REMARK   76  A    between atoms: _174  and  _177
REMARK   77  A    between atoms: _177  and  _178
REMARK   78  A    between atoms: _183  and  _185
REMARK   79  A    between atoms: _185  and  _186
REMARK   80  A    between atoms: _185  and  _188
REMARK   81  A    between atoms: _188  and  _189
REMARK   82  A    between atoms: _189  and  _190
REMARK   83  A    between atoms: _190  and  _191
REMARK   84  A    between atoms: _191  and  _192
REMARK   85  A    between atoms: _196  and  _198
REMARK   86  A    between atoms: _198  and  _199
REMARK   87  A    between atoms: _201  and  _203
REMARK   88  A    between atoms: _203  and  _204
REMARK   89  A    between atoms: _203  and  _206
REMARK   90  A    between atoms: _206  and  _207
REMARK   91  A    between atoms: _212  and  _214
REMARK   92  A    between atoms: _214  and  _215
REMARK   93  A    between atoms: _214  and  _217
REMARK   94  A    between atoms: _217  and  _218
REMARK   95  A    between atoms: _218  and  _219
REMARK   96  A    between atoms: _222  and  _224
REMARK   97  A    between atoms: _224  and  _225
REMARK   98  A    between atoms: _224  and  _227
REMARK   99  A    between atoms: _230  and  _232
REMARK  100  A    between atoms: _232  and  _233
REMARK  101  A    between atoms: _232  and  _235
REMARK  102  A    between atoms: _235  and  _236
REMARK  103  A    between atoms: _236  and  _238
REMARK  104  A    between atoms: _238  and  MN_286
REMARK  105  A    between atoms: _239  and  _241
REMARK  106  A    between atoms: _241  and  _242
REMARK  107  A    between atoms: _241  and  _244
REMARK  108  A    between atoms: _244  and  _245
REMARK  109  A    between atoms: _245  and  _246
REMARK  110  A    between atoms: _246  and  _247
REMARK  111  A    between atoms: _247  and  _248
REMARK  112  A    between atoms: _252  and  _254
REMARK  113  A    between atoms: _254  and  _255
REMARK  114  A    between atoms: _254  and  _257
REMARK  115  A    between atoms: _260  and  _262
REMARK  116  A    between atoms: _262  and  _263
REMARK  117  A    between atoms: _262  and  _265
REMARK  118  A    between atoms: _265  and  _266
REMARK  119  A    between atoms: _268  and  _270
REMARK  120  A    between atoms: _270  and  _271
REMARK  121  A    between atoms: _270  and  _273
REMARK  122  A    between atoms: _273  and  _274
REMARK  123  A    between atoms: _274  and  _275
REMARK  124  A    between atoms: _275  and  _276
REMARK                            x       y       z     vdW  Elec       q    Type
REMARK                         _______ _______ _______ _____ _____    ______ ____
ROOT
ATOM      1  C   VAL A   1      -2.478  13.998  27.610  0.00  0.00    +0.238 C 
ATOM      2  N   SER A   2      -1.973  13.965  28.836  0.00  0.00    -0.296 N 
ATOM      3  H   SER A   2      -1.082  14.454  29.057  0.00  0.00    +0.150 HD
ATOM      4  O   VAL A   1      -3.575  13.510  27.348  0.00  0.00    -0.274 OA
ENDROOT
BRANCH   1   5
ATOM      5  CA  VAL A   1      -1.643  14.658  26.511  0.00  0.00    +0.145 C 
BRANCH   5   6
ATOM      6  CB  VAL A   1      -1.044  13.601  25.566  0.00  0.00    +0.025 C 
ATOM      7  CG2 VAL A   1      -0.180  12.584  26.352  0.00  0.00    +0.002 C 
ATOM      8  CG1 VAL A   1      -0.258  14.277  24.443  0.00  0.00    +0.002 C 
ENDBRANCH   5   6
BRANCH   5   9
ATOM      9  N   VAL A   1      -0.653  15.588  27.040  0.00  0.00    -0.238 NA
ATOM     10  H   VAL A   1       0.345  15.310  27.130  0.00  0.00    +0.142 HD
ENDBRANCH   5   9
ENDBRANCH   1   5
BRANCH   2  11
ATOM     11  CA  SER A   2      -2.692  13.230  29.863  0.00  0.00    +0.166 C 
BRANCH  11  12
ATOM     12  CB  SER A   2      -3.684  14.134  30.586  0.00  0.00    +0.229 C 
ATOM     13  OG  SER A   2      -4.563  13.659  31.300  0.00  0.00    -0.286 OA
ENDBRANCH  11  12
BRANCH  11  14
ATOM     14  C   SER A   2      -1.717  12.577  30.851  0.00  0.00    +0.165 C 
BRANCH  14  15
ATOM     15  O   SER A   2      -1.019  13.573  31.567  0.00  0.00    -0.380 OA
ATOM     16  H   SER A   2      -0.512  14.139  30.933  0.00  0.00    +0.211 HD
ENDBRANCH  14  15
ENDBRANCH  11  14
ENDBRANCH   2  11
TORSDOF 7
REMARK  Name = ../refined-set-2016/3qin/3qin_pocket.pdb
REMARK  124 active torsions:
REMARK  status: ('A' for Active; 'I' for Inactive)
REMARK    1  A    between atoms: _1  and  _3
REMARK    2  A    between atoms: _3  and  _4
REMARK    3  A    between atoms: _3  and  _6
REMARK    4  A    between atoms: _9  and  _11
REMARK    5  A    between atoms: _11  and  _12
REMARK    6  A    between atoms: _11  and  _14
REMARK    7  A    between atoms: _14  and  _15
REMARK    8  A    between atoms: _15  and  _16
REMARK    9  A    between atoms: _15  and  _17
REMARK   10  A    between atoms: _16  and  MN_285
REMARK   11  A    between atoms: _17  and  MN_286
REMARK   12  A    between atoms: _18  and  _20
REMARK   13  A    between atoms: _20  and  _21
REMARK   14  A    between atoms: _23  and  _25
REMARK   15  A    between atoms: _25  and  _26
REMARK   16  A    between atoms: _29  and  _31
REMARK   17  A    between atoms: _31  and  _32
REMARK   18  A    between atoms: _35  and  _37
REMARK   19  A    between atoms: _37  and  _38
REMARK   20  A    between atoms: _37  and  _40
REMARK   21  A    between atoms: _40  and  _41
REMARK   22  A    between atoms: _46  and  _48
REMARK   23  A    between atoms: _48  and  _49
REMARK   24  A    between atoms: _48  and  _51
REMARK   25  A    between atoms: _51  and  _52
REMARK   26  A    between atoms: _52  and  _53
REMARK   27  A    between atoms: _58  and  _60
REMARK   28  A    between atoms: _60  and  _61
REMARK   29  A    between atoms: _60  and  _63
REMARK   30  A    between atoms: _63  and  _64
REMARK   31  A    between atoms: _67  and  _69
REMARK   32  A    between atoms: _69  and  _70
REMARK   33  A    between atoms: _69  and  _72
REMARK   34  A    between atoms: _72  and  _73
REMARK   35  A    between atoms: _73  and  _74
REMARK   36  A    between atoms: _74  and  _75
REMARK   37  A    between atoms: _75  and  MN_285
REMARK   38  A    between atoms: _77  and  _79
REMARK   39  A    between atoms: _79  and  _80
REMARK   40  A    between atoms: _79  and  _82
REMARK   41  A    between atoms: _82  and  _83
REMARK   42  A    between atoms: _86  and  _88
REMARK   43  A    between atoms: _88  and  _89
REMARK   44  A    between atoms: _88  and  _91
REMARK   45  A    between atoms: _91  and  _92
REMARK   46  A    between atoms: _92  and  _94
REMARK   47  A    between atoms: _94  and  MN_285
REMARK   48  A    between atoms: _95  and  _97
REMARK   49  A    between atoms: _97  and  _98
REMARK   50  A    between atoms: _97  and  _100
REMARK   51  A    between atoms: _100  and  _101
REMARK   52  A    between atoms: _103  and  _105
REMARK   53  A    between atoms: _105  and  _106
REMARK   54  A    between atoms: _105  and  _108
REMARK   55  A    between atoms: _108  and  _109
REMARK   56  A    between atoms: _109  and  _110
REMARK   57  A    between atoms: _115  and  _117
REMARK   58  A    between atoms: _117  and  _118
REMARK   59  A    between atoms: _117  and  _120
REMARK   60  A    between atoms: _120  and  _121
REMARK   61  A    between atoms: _126  and  _127
REMARK   62  A    between atoms: _129  and  _131
REMARK   63  A    between atoms: _131  and  _132
REMARK   64  A    between atoms: _135  and  _137
REMARK   65  A    between atoms: _137  and  _138
REMARK   66  A    between atoms: _137  and  _140
REMARK   67  A    between atoms: _140  and  _141
REMARK   68  A    between atoms: _151  and  _153
REMARK   69  A    between atoms: _153  and  _154
REMARK   70  A    between atoms: _153  and  _156
REMARK   71  A    between atoms: _160  and  _161
REMARK   72  A    between atoms: _166  and  _168
REMARK   73  A    between atoms: _168  and  _169
REMARK   74  A    between atoms: _172  and  _174
REMARK   75  A    between atoms: _174  and  _175
REMARK   76  A    between atoms: _174  and  _177
REMARK   77  A    between atoms: _177  and  _178
REMARK   78  A    between atoms: _183  and  _185
REMARK   79  A    between atoms: _185  and  _186
REMARK   80  A    between atoms: _185  and  _188
REMARK   81  A    between atoms: _188  and  _189
REMARK   82  A    between atoms: _189  and  _190
REMARK   83  A    between atoms: _190  and  _191
REMARK   84  A    between atoms: _191  and  _192
REMARK   85  A    between atoms: _196  and  _198
REMARK   86  A    between atoms: _198  and  _199
REMARK   87  A    between atoms: _201  and  _203
REMARK   88  A    between atoms: _203  and  _204
REMARK   89  A    between atoms: _203  and  _206
REMARK   90  A    between atoms: _206  and  _207
REMARK   91  A    between atoms: _212  and  _214
REMARK   92  A    between atoms: _214  and  _215
REMARK   93  A    between atoms: _214  and  _217
REMARK   94  A    between atoms: _217  and  _218
REMARK   95  A    between atoms: _218  and  _219
REMARK   96  A    between atoms: _222  and  _224
REMARK   97  A    between atoms: _224  and  _225
REMARK   98  A    between atoms: _224  and  _227
REMARK   99  A    between atoms: _230  and  _232
REMARK  100  A    between atoms: _232  and  _233
REMARK  101  A    between atoms: _232  and  _235
REMARK  102  A    between atoms: _235  and  _236
REMARK  103  A    between atoms: _236  and  _238
REMARK  104  A    between atoms: _238  and  MN_286
REMARK  105  A    between atoms: _239  and  _241
REMARK  106  A    between atoms: _241  and  _242
REMARK  107  A    between atoms: _241  and  _244
REMARK  108  A    between atoms: _244  and  _245
REMARK  109  A    between atoms: _245  and  _246
REMARK  110  A    between atoms: _246  and  _247
REMARK  111  A    between atoms: _247  and  _248
REMARK  112  A    between atoms: _252  and  _254
REMARK  113  A    between atoms: _254  and  _255
REMARK  114  A    between atoms: _254  and  _257
REMARK  115  A    between atoms: _260  and  _262
REMARK  116  A    between atoms: _262  and  _263
REMARK  117  A    between atoms: _262  and  _265
REMARK  118  A    between atoms: _265  and  _266
REMARK  119  A    between atoms: _268  and  _270
REMARK  120  A    between atoms: _270  and  _271
REMARK  121  A    between atoms: _270  and  _273
REMARK  122  A    between atoms: _273  and  _274
REMARK  123  A    between atoms: _274  and  _275
REMARK  124  A    between atoms: _275  and  _276
REMARK                            x       y       z     vdW  Elec       q    Type
REMARK                         _______ _______ _______ _____ _____    ______ ____
ROOT
ATOM      1  NE  ARG A   1      -1.189  10.147  33.639  0.00  0.00    -0.265 N 
ATOM      2  HE  ARG A   1      -1.574  10.781  34.368  0.00  0.00    +0.259 HD
ATOM      3  CZ  ARG A   1      -0.037  10.490  33.064  0.00  0.00    +0.342 C 
ATOM      4  NH2 ARG A   1       0.578  11.611  33.427  0.00  0.00    -0.292 N 
ATOM      5 HH21 ARG A   1       0.160  12.220  34.159  0.00  0.00    +0.255 HD
ATOM      6 HH22 ARG A   1       1.477  11.879  32.979  0.00  0.00    +0.255 HD
ATOM      7  NH1 ARG A   1       0.497   9.726  32.116  0.00  0.00    -0.292 N 
ATOM      8 HH11 ARG A   1       0.015   8.854  31.818  0.00  0.00    +0.255 HD
ATOM      9 HH12 ARG A   1       1.396  10.001  31.672  0.00  0.00    +0.255 HD
ENDROOT
BRANCH   1  10
ATOM     10  CD  ARG A   1      -1.947   8.942  33.315  0.00  0.00    +0.174 C 
BRANCH  10  11
ATOM     11  CG  ARG A   1      -3.451   9.130  33.530  0.00  0.00    +0.045 C 
BRANCH  11  12
ATOM     12  CB  ARG A   1      -4.018  10.175  32.575  0.00  0.00    +0.029 C 
BRANCH  12  13
ATOM     13  CA  ARG A   1      -5.525  10.403  32.719  0.00  0.00    +0.133 C 
BRANCH  13  14
ATOM     14  N   ARG A   1      -6.006  11.325  31.699  0.00  0.00    -0.239 NA
ATOM     15  H   ARG A   1      -5.400  12.118  31.407  0.00  0.00    +0.142 HD
ENDBRANCH  13  14
BRANCH  13  16
ATOM     16  C   ARG A   1      -5.846  10.928  34.111  0.00  0.00    +0.224 C 
ATOM     17  O   ARG A   1      -5.448  12.033  34.474  0.00  0.00    -0.287 OA
ENDBRANCH  13  16
ENDBRANCH  12  13
ENDBRANCH  11  12
ENDBRANCH  10  11
ENDBRANCH   1  10
TORSDOF 6
REMARK  Name = ../refined-set-2016/3qin/3qin_pocket.pdb
REMARK  124 active torsions:
REMARK  status: ('A' for Active; 'I' for Inactive)
REMARK    1  A    between atoms: _1  and  _3
REMARK    2  A    between atoms: _3  and  _4
REMARK    3  A    between atoms: _3  and  _6
REMARK    4  A    between atoms: _9  and  _11
REMARK    5  A    between atoms: _11  and  _12
REMARK    6  A    between atoms: _11  and  _14
REMARK    7  A    between atoms: _14  and  _15
REMARK    8  A    between atoms: _15  and  _16
REMARK    9  A    between atoms: _15  and  _17
REMARK   10  A    between atoms: _16  and  MN_285
REMARK   11  A    between atoms: _17  and  MN_286
REMARK   12  A    between atoms: _18  and  _20
REMARK   13  A    between atoms: _20  and  _21
REMARK   14  A    between atoms: _23  and  _25
REMARK   15  A    between atoms: _25  and  _26
REMARK   16  A    between atoms: _29  and  _31
REMARK   17  A    between atoms: _31  and  _32
REMARK   18  A    between atoms: _35  and  _37
REMARK   19  A    between atoms: _37  and  _38
REMARK   20  A    between atoms: _37  and  _40
REMARK   21  A    between atoms: _40  and  _41
REMARK   22  A    between atoms: _46  and  _48
REMARK   23  A    between atoms: _48  and  _49
REMARK   24  A    between atoms: _48  and  _51
REMARK   25  A    between atoms: _51  and  _52
REMARK   26  A    between atoms: _52  and  _53
REMARK   27  A    between atoms: _58  and  _60
REMARK   28  A    between atoms: _60  and  _61
REMARK   29  A    between atoms: _60  and  _63
REMARK   30  A    between atoms: _63  and  _64
REMARK   31  A    between atoms: _67  and  _69
REMARK   32  A    between atoms: _69  and  _70
REMARK   33  A    between atoms: _69  and  _72
REMARK   34  A    between atoms: _72  and  _73
REMARK   35  A    between atoms: _73  and  _74
REMARK   36  A    between atoms: _74  and  _75
REMARK   37  A    between atoms: _75  and  MN_285
REMARK   38  A    between atoms: _77  and  _79
REMARK   39  A    between atoms: _79  and  _80
REMARK   40  A    between atoms: _79  and  _82
REMARK   41  A    between atoms: _82  and  _83
REMARK   42  A    between atoms: _86  and  _88
REMARK   43  A    between atoms: _88  and  _89
REMARK   44  A    between atoms: _88  and  _91
REMARK   45  A    between atoms: _91  and  _92
REMARK   46  A    between atoms: _92  and  _94
REMARK   47  A    between atoms: _94  and  MN_285
REMARK   48  A    between atoms: _95  and  _97
REMARK   49  A    between atoms: _97  and  _98
REMARK   50  A    between atoms: _97  and  _100
REMARK   51  A    between atoms: _100  and  _101
REMARK   52  A    between atoms: _103  and  _105
REMARK   53  A    between atoms: _105  and  _106
REMARK   54  A    between atoms: _105  and  _108
REMARK   55  A    between atoms: _108  and  _109
REMARK   56  A    between atoms: _109  and  _110
REMARK   57  A    between atoms: _115  and  _117
REMARK   58  A    between atoms: _117  and  _118
REMARK   59  A    between atoms: _117  and  _120
REMARK   60  A    between atoms: _120  and  _121
REMARK   61  A    between atoms: _126  and  _127
REMARK   62  A    between atoms: _129  and  _131
REMARK   63  A    between atoms: _131  and  _132
REMARK   64  A    between atoms: _135  and  _137
REMARK   65  A    between atoms: _137  and  _138
REMARK   66  A    between atoms: _137  and  _140
REMARK   67  A    between atoms: _140  and  _141
REMARK   68  A    between atoms: _151  and  _153
REMARK   69  A    between atoms: _153  and  _154
REMARK   70  A    between atoms: _153  and  _156
REMARK   71  A    between atoms: _160  and  _161
REMARK   72  A    between atoms: _166  and  _168
REMARK   73  A    between atoms: _168  and  _169
REMARK   74  A    between atoms: _172  and  _174
REMARK   75  A    between atoms: _174  and  _175
REMARK   76  A    between atoms: _174  and  _177
REMARK   77  A    between atoms: _177  and  _178
REMARK   78  A    between atoms: _183  and  _185
REMARK   79  A    between atoms: _185  and  _186
REMARK   80  A    between atoms: _185  and  _188
REMARK   81  A    between atoms: _188  and  _189
REMARK   82  A    between atoms: _189  and  _190
REMARK   83  A    between atoms: _190  and  _191
REMARK   84  A    between atoms: _191  and  _192
REMARK   85  A    between atoms: _196  and  _198
REMARK   86  A    between atoms: _198  and  _199
REMARK   87  A    between atoms: _201  and  _203
REMARK   88  A    between atoms: _203  and  _204
REMARK   89  A    between atoms: _203  and  _206
REMARK   90  A    between atoms: _206  and  _207
REMARK   91  A    between atoms: _212  and  _214
REMARK   92  A    between atoms: _214  and  _215
REMARK   93  A    between atoms: _214  and  _217
REMARK   94  A    between atoms: _217  and  _218
REMARK   95  A    between atoms: _218  and  _219
REMARK   96  A    between atoms: _222  and  _224
REMARK   97  A    between atoms: _224  and  _225
REMARK   98  A    between atoms: _224  and  _227
REMARK   99  A    between atoms: _230  and  _232
REMARK  100  A    between atoms: _232  and  _233
REMARK  101  A    between atoms: _232  and  _235
REMARK  102  A    between atoms: _235  and  _236
REMARK  103  A    between atoms: _236  and  _238
REMARK  104  A    between atoms: _238  and  MN_286
REMARK  105  A    between atoms: _239  and  _241
REMARK  106  A    between atoms: _241  and  _242
REMARK  107  A    between atoms: _241  and  _244
REMARK  108  A    between atoms: _244  and  _245
REMARK  109  A    between atoms: _245  and  _246
REMARK  110  A    between atoms: _246  and  _247
REMARK  111  A    between atoms: _247  and  _248
REMARK  112  A    between atoms: _252  and  _254
REMARK  113  A    between atoms: _254  and  _255
REMARK  114  A    between atoms: _254  and  _257
REMARK  115  A    between atoms: _260  and  _262
REMARK  116  A    between atoms: _262  and  _263
REMARK  117  A    between atoms: _262  and  _265
REMARK  118  A    between atoms: _265  and  _266
REMARK  119  A    between atoms: _268  and  _270
REMARK  120  A    between atoms: _270  and  _271
REMARK  121  A    between atoms: _270  and  _273
REMARK  122  A    between atoms: _273  and  _274
REMARK  123  A    between atoms: _274  and  _275
REMARK  124  A    between atoms: _275  and  _276
REMARK                            x       y       z     vdW  Elec       q    Type
REMARK                         _______ _______ _______ _____ _____    ______ ____
ROOT
ATOM      1  O   HOH     1      11.035  10.048  30.754  0.00  0.00    +0.000 OA
ENDROOT
TORSDOF 0
REMARK  Name = ../refined-set-2016/3qin/3qin_pocket.pdb
REMARK  124 active torsions:
REMARK  status: ('A' for Active; 'I' for Inactive)
REMARK    1  A    between atoms: _1  and  _3
REMARK    2  A    between atoms: _3  and  _4
REMARK    3  A    between atoms: _3  and  _6
REMARK    4  A    between atoms: _9  and  _11
REMARK    5  A    between atoms: _11  and  _12
REMARK    6  A    between atoms: _11  and  _14
REMARK    7  A    between atoms: _14  and  _15
REMARK    8  A    between atoms: _15  and  _16
REMARK    9  A    between atoms: _15  and  _17
REMARK   10  A    between atoms: _16  and  MN_285
REMARK   11  A    between atoms: _17  and  MN_286
REMARK   12  A    between atoms: _18  and  _20
REMARK   13  A    between atoms: _20  and  _21
REMARK   14  A    between atoms: _23  and  _25
REMARK   15  A    between atoms: _25  and  _26
REMARK   16  A    between atoms: _29  and  _31
REMARK   17  A    between atoms: _31  and  _32
REMARK   18  A    between atoms: _35  and  _37
REMARK   19  A    between atoms: _37  and  _38
REMARK   20  A    between atoms: _37  and  _40
REMARK   21  A    between atoms: _40  and  _41
REMARK   22  A    between atoms: _46  and  _48
REMARK   23  A    between atoms: _48  and  _49
REMARK   24  A    between atoms: _48  and  _51
REMARK   25  A    between atoms: _51  and  _52
REMARK   26  A    between atoms: _52  and  _53
REMARK   27  A    between atoms: _58  and  _60
REMARK   28  A    between atoms: _60  and  _61
REMARK   29  A    between atoms: _60  and  _63
REMARK   30  A    between atoms: _63  and  _64
REMARK   31  A    between atoms: _67  and  _69
REMARK   32  A    between atoms: _69  and  _70
REMARK   33  A    between atoms: _69  and  _72
REMARK   34  A    between atoms: _72  and  _73
REMARK   35  A    between atoms: _73  and  _74
REMARK   36  A    between atoms: _74  and  _75
REMARK   37  A    between atoms: _75  and  MN_285
REMARK   38  A    between atoms: _77  and  _79
REMARK   39  A    between atoms: _79  and  _80
REMARK   40  A    between atoms: _79  and  _82
REMARK   41  A    between atoms: _82  and  _83
REMARK   42  A    between atoms: _86  and  _88
REMARK   43  A    between atoms: _88  and  _89
REMARK   44  A    between atoms: _88  and  _91
REMARK   45  A    between atoms: _91  and  _92
REMARK   46  A    between atoms: _92  and  _94
REMARK   47  A    between atoms: _94  and  MN_285
REMARK   48  A    between atoms: _95  and  _97
REMARK   49  A    between atoms: _97  and  _98
REMARK   50  A    between atoms: _97  and  _100
REMARK   51  A    between atoms: _100  and  _101
REMARK   52  A    between atoms: _103  and  _105
REMARK   53  A    between atoms: _105  and  _106
REMARK   54  A    between atoms: _105  and  _108
REMARK   55  A    between atoms: _108  and  _109
REMARK   56  A    between atoms: _109  and  _110
REMARK   57  A    between atoms: _115  and  _117
REMARK   58  A    between atoms: _117  and  _118
REMARK   59  A    between atoms: _117  and  _120
REMARK   60  A    between atoms: _120  and  _121
REMARK   61  A    between atoms: _126  and  _127
REMARK   62  A    between atoms: _129  and  _131
REMARK   63  A    between atoms: _131  and  _132
REMARK   64  A    between atoms: _135  and  _137
REMARK   65  A    between atoms: _137  and  _138
REMARK   66  A    between atoms: _137  and  _140
REMARK   67  A    between atoms: _140  and  _141
REMARK   68  A    between atoms: _151  and  _153
REMARK   69  A    between atoms: _153  and  _154
REMARK   70  A    between atoms: _153  and  _156
REMARK   71  A    between atoms: _160  and  _161
REMARK   72  A    between atoms: _166  and  _168
REMARK   73  A    between atoms: _168  and  _169
REMARK   74  A    between atoms: _172  and  _174
REMARK   75  A    between atoms: _174  and  _175
REMARK   76  A    between atoms: _174  and  _177
REMARK   77  A    between atoms: _177  and  _178
REMARK   78  A    between atoms: _183  and  _185
REMARK   79  A    between atoms: _185  and  _186
REMARK   80  A    between atoms: _185  and  _188
REMARK   81  A    between atoms: _188  and  _189
REMARK   82  A    between atoms: _189  and  _190
REMARK   83  A    between atoms: _190  and  _191
REMARK   84  A    between atoms: _191  and  _192
REMARK   85  A    between atoms: _196  and  _198
REMARK   86  A    between atoms: _198  and  _199
REMARK   87  A    between atoms: _201  and  _203
REMARK   88  A    between atoms: _203  and  _204
REMARK   89  A    between atoms: _203  and  _206
REMARK   90  A    between atoms: _206  and  _207
REMARK   91  A    between atoms: _212  and  _214
REMARK   92  A    between atoms: _214  and  _215
REMARK   93  A    between atoms: _214  and  _217
REMARK   94  A    between atoms: _217  and  _218
REMARK   95  A    between atoms: _218  and  _219
REMARK   96  A    between atoms: _222  and  _224
REMARK   97  A    between atoms: _224  and  _225
REMARK   98  A    between atoms: _224  and  _227
REMARK   99  A    between atoms: _230  and  _232
REMARK  100  A    between atoms: _232  and  _233
REMARK  101  A    between atoms: _232  and  _235
REMARK  102  A    between atoms: _235  and  _236
REMARK  103  A    between atoms: _236  and  _238
REMARK  104  A    between atoms: _238  and  MN_286
REMARK  105  A    between atoms: _239  and  _241
REMARK  106  A    between atoms: _241  and  _242
REMARK  107  A    between atoms: _241  and  _244
REMARK  108  A    between atoms: _244  and  _245
REMARK  109  A    between atoms: _245  and  _246
REMARK  110  A    between atoms: _246  and  _247
REMARK  111  A    between atoms: _247  and  _248
REMARK  112  A    between atoms: _252  and  _254
REMARK  113  A    between atoms: _254  and  _255
REMARK  114  A    between atoms: _254  and  _257
REMARK  115  A    between atoms: _260  and  _262
REMARK  116  A    between atoms: _262  and  _263
REMARK  117  A    between atoms: _262  and  _265
REMARK  118  A    between atoms: _265  and  _266
REMARK  119  A    between atoms: _268  and  _270
REMARK  120  A    between atoms: _270  and  _271
REMARK  121  A    between atoms: _270  and  _273
REMARK  122  A    between atoms: _273  and  _274
REMARK  123  A    between atoms: _274  and  _275
REMARK  124  A    between atoms: _275  and  _276
REMARK                            x       y       z     vdW  Elec       q    Type
REMARK                         _______ _______ _______ _____ _____    ______ ____
ROOT
ATOM      1  O   HOH     1       8.387  11.420  24.171  0.00  0.00    +0.000 OA
ENDROOT
TORSDOF 0
REMARK  Name = ../refined-set-2016/3qin/3qin_pocket.pdb
REMARK  124 active torsions:
REMARK  status: ('A' for Active; 'I' for Inactive)
REMARK    1  A    between atoms: _1  and  _3
REMARK    2  A    between atoms: _3  and  _4
REMARK    3  A    between atoms: _3  and  _6
REMARK    4  A    between atoms: _9  and  _11
REMARK    5  A    between atoms: _11  and  _12
REMARK    6  A    between atoms: _11  and  _14
REMARK    7  A    between atoms: _14  and  _15
REMARK    8  A    between atoms: _15  and  _16
REMARK    9  A    between atoms: _15  and  _17
REMARK   10  A    between atoms: _16  and  MN_285
REMARK   11  A    between atoms: _17  and  MN_286
REMARK   12  A    between atoms: _18  and  _20
REMARK   13  A    between atoms: _20  and  _21
REMARK   14  A    between atoms: _23  and  _25
REMARK   15  A    between atoms: _25  and  _26
REMARK   16  A    between atoms: _29  and  _31
REMARK   17  A    between atoms: _31  and  _32
REMARK   18  A    between atoms: _35  and  _37
REMARK   19  A    between atoms: _37  and  _38
REMARK   20  A    between atoms: _37  and  _40
REMARK   21  A    between atoms: _40  and  _41
REMARK   22  A    between atoms: _46  and  _48
REMARK   23  A    between atoms: _48  and  _49
REMARK   24  A    between atoms: _48  and  _51
REMARK   25  A    between atoms: _51  and  _52
REMARK   26  A    between atoms: _52  and  _53
REMARK   27  A    between atoms: _58  and  _60
REMARK   28  A    between atoms: _60  and  _61
REMARK   29  A    between atoms: _60  and  _63
REMARK   30  A    between atoms: _63  and  _64
REMARK   31  A    between atoms: _67  and  _69
REMARK   32  A    between atoms: _69  and  _70
REMARK   33  A    between atoms: _69  and  _72
REMARK   34  A    between atoms: _72  and  _73
REMARK   35  A    between atoms: _73  and  _74
REMARK   36  A    between atoms: _74  and  _75
REMARK   37  A    between atoms: _75  and  MN_285
REMARK   38  A    between atoms: _77  and  _79
REMARK   39  A    between atoms: _79  and  _80
REMARK   40  A    between atoms: _79  and  _82
REMARK   41  A    between atoms: _82  and  _83
REMARK   42  A    between atoms: _86  and  _88
REMARK   43  A    between atoms: _88  and  _89
REMARK   44  A    between atoms: _88  and  _91
REMARK   45  A    between atoms: _91  and  _92
REMARK   46  A    between atoms: _92  and  _94
REMARK   47  A    between atoms: _94  and  MN_285
REMARK   48  A    between atoms: _95  and  _97
REMARK   49  A    between atoms: _97  and  _98
REMARK   50  A    between atoms: _97  and  _100
REMARK   51  A    between atoms: _100  and  _101
REMARK   52  A    between atoms: _103  and  _105
REMARK   53  A    between atoms: _105  and  _106
REMARK   54  A    between atoms: _105  and  _108
REMARK   55  A    between atoms: _108  and  _109
REMARK   56  A    between atoms: _109  and  _110
REMARK   57  A    between atoms: _115  and  _117
REMARK   58  A    between atoms: _117  and  _118
REMARK   59  A    between atoms: _117  and  _120
REMARK   60  A    between atoms: _120  and  _121
REMARK   61  A    between atoms: _126  and  _127
REMARK   62  A    between atoms: _129  and  _131
REMARK   63  A    between atoms: _131  and  _132
REMARK   64  A    between atoms: _135  and  _137
REMARK   65  A    between atoms: _137  and  _138
REMARK   66  A    between atoms: _137  and  _140
REMARK   67  A    between atoms: _140  and  _141
REMARK   68  A    between atoms: _151  and  _153
REMARK   69  A    between atoms: _153  and  _154
REMARK   70  A    between atoms: _153  and  _156
REMARK   71  A    between atoms: _160  and  _161
REMARK   72  A    between atoms: _166  and  _168
REMARK   73  A    between atoms: _168  and  _169
REMARK   74  A    between atoms: _172  and  _174
REMARK   75  A    between atoms: _174  and  _175
REMARK   76  A    between atoms: _174  and  _177
REMARK   77  A    between atoms: _177  and  _178
REMARK   78  A    between atoms: _183  and  _185
REMARK   79  A    between atoms: _185  and  _186
REMARK   80  A    between atoms: _185  and  _188
REMARK   81  A    between atoms: _188  and  _189
REMARK   82  A    between atoms: _189  and  _190
REMARK   83  A    between atoms: _190  and  _191
REMARK   84  A    between atoms: _191  and  _192
REMARK   85  A    between atoms: _196  and  _198
REMARK   86  A    between atoms: _198  and  _199
REMARK   87  A    between atoms: _201  and  _203
REMARK   88  A    between atoms: _203  and  _204
REMARK   89  A    between atoms: _203  and  _206
REMARK   90  A    between atoms: _206  and  _207
REMARK   91  A    between atoms: _212  and  _214
REMARK   92  A    between atoms: _214  and  _215
REMARK   93  A    between atoms: _214  and  _217
REMARK   94  A    between atoms: _217  and  _218
REMARK   95  A    between atoms: _218  and  _219
REMARK   96  A    between atoms: _222  and  _224
REMARK   97  A    between atoms: _224  and  _225
REMARK   98  A    between atoms: _224  and  _227
REMARK   99  A    between atoms: _230  and  _232
REMARK  100  A    between atoms: _232  and  _233
REMARK  101  A    between atoms: _232  and  _235
REMARK  102  A    between atoms: _235  and  _236
REMARK  103  A    between atoms: _236  and  _238
REMARK  104  A    between atoms: _238  and  MN_286
REMARK  105  A    between atoms: _239  and  _241
REMARK  106  A    between atoms: _241  and  _242
REMARK  107  A    between atoms: _241  and  _244
REMARK  108  A    between atoms: _244  and  _245
REMARK  109  A    between atoms: _245  and  _246
REMARK  110  A    between atoms: _246  and  _247
REMARK  111  A    between atoms: _247  and  _248
REMARK  112  A    between atoms: _252  and  _254
REMARK  113  A    between atoms: _254  and  _255
REMARK  114  A    between atoms: _254  and  _257
REMARK  115  A    between atoms: _260  and  _262
REMARK  116  A    between atoms: _262  and  _263
REMARK  117  A    between atoms: _262  and  _265
REMARK  118  A    between atoms: _265  and  _266
REMARK  119  A    between atoms: _268  and  _270
REMARK  120  A    between atoms: _270  and  _271
REMARK  121  A    between atoms: _270  and  _273
REMARK  122  A    between atoms: _273  and  _274
REMARK  123  A    between atoms: _274  and  _275
REMARK  124  A    between atoms: _275  and  _276
REMARK                            x       y       z     vdW  Elec       q    Type
REMARK                         _______ _______ _______ _____ _____    ______ ____
ROOT
ATOM      1  O   HOH     1       5.649   8.277  23.168  0.00  0.00    +0.000 OA
ENDROOT
TORSDOF 0
REMARK  Name = ../refined-set-2016/3qin/3qin_pocket.pdb
REMARK  124 active torsions:
REMARK  status: ('A' for Active; 'I' for Inactive)
REMARK    1  A    between atoms: _1  and  _3
REMARK    2  A    between atoms: _3  and  _4
REMARK    3  A    between atoms: _3  and  _6
REMARK    4  A    between atoms: _9  and  _11
REMARK    5  A    between atoms: _11  and  _12
REMARK    6  A    between atoms: _11  and  _14
REMARK    7  A    between atoms: _14  and  _15
REMARK    8  A    between atoms: _15  and  _16
REMARK    9  A    between atoms: _15  and  _17
REMARK   10  A    between atoms: _16  and  MN_285
REMARK   11  A    between atoms: _17  and  MN_286
REMARK   12  A    between atoms: _18  and  _20
REMARK   13  A    between atoms: _20  and  _21
REMARK   14  A    between atoms: _23  and  _25
REMARK   15  A    between atoms: _25  and  _26
REMARK   16  A    between atoms: _29  and  _31
REMARK   17  A    between atoms: _31  and  _32
REMARK   18  A    between atoms: _35  and  _37
REMARK   19  A    between atoms: _37  and  _38
REMARK   20  A    between atoms: _37  and  _40
REMARK   21  A    between atoms: _40  and  _41
REMARK   22  A    between atoms: _46  and  _48
REMARK   23  A    between atoms: _48  and  _49
REMARK   24  A    between atoms: _48  and  _51
REMARK   25  A    between atoms: _51  and  _52
REMARK   26  A    between atoms: _52  and  _53
REMARK   27  A    between atoms: _58  and  _60
REMARK   28  A    between atoms: _60  and  _61
REMARK   29  A    between atoms: _60  and  _63
REMARK   30  A    between atoms: _63  and  _64
REMARK   31  A    between atoms: _67  and  _69
REMARK   32  A    between atoms: _69  and  _70
REMARK   33  A    between atoms: _69  and  _72
REMARK   34  A    between atoms: _72  and  _73
REMARK   35  A    between atoms: _73  and  _74
REMARK   36  A    between atoms: _74  and  _75
REMARK   37  A    between atoms: _75  and  MN_285
REMARK   38  A    between atoms: _77  and  _79
REMARK   39  A    between atoms: _79  and  _80
REMARK   40  A    between atoms: _79  and  _82
REMARK   41  A    between atoms: _82  and  _83
REMARK   42  A    between atoms: _86  and  _88
REMARK   43  A    between atoms: _88  and  _89
REMARK   44  A    between atoms: _88  and  _91
REMARK   45  A    between atoms: _91  and  _92
REMARK   46  A    between atoms: _92  and  _94
REMARK   47  A    between atoms: _94  and  MN_285
REMARK   48  A    between atoms: _95  and  _97
REMARK   49  A    between atoms: _97  and  _98
REMARK   50  A    between atoms: _97  and  _100
REMARK   51  A    between atoms: _100  and  _101
REMARK   52  A    between atoms: _103  and  _105
REMARK   53  A    between atoms: _105  and  _106
REMARK   54  A    between atoms: _105  and  _108
REMARK   55  A    between atoms: _108  and  _109
REMARK   56  A    between atoms: _109  and  _110
REMARK   57  A    between atoms: _115  and  _117
REMARK   58  A    between atoms: _117  and  _118
REMARK   59  A    between atoms: _117  and  _120
REMARK   60  A    between atoms: _120  and  _121
REMARK   61  A    between atoms: _126  and  _127
REMARK   62  A    between atoms: _129  and  _131
REMARK   63  A    between atoms: _131  and  _132
REMARK   64  A    between atoms: _135  and  _137
REMARK   65  A    between atoms: _137  and  _138
REMARK   66  A    between atoms: _137  and  _140
REMARK   67  A    between atoms: _140  and  _141
REMARK   68  A    between atoms: _151  and  _153
REMARK   69  A    between atoms: _153  and  _154
REMARK   70  A    between atoms: _153  and  _156
REMARK   71  A    between atoms: _160  and  _161
REMARK   72  A    between atoms: _166  and  _168
REMARK   73  A    between atoms: _168  and  _169
REMARK   74  A    between atoms: _172  and  _174
REMARK   75  A    between atoms: _174  and  _175
REMARK   76  A    between atoms: _174  and  _177
REMARK   77  A    between atoms: _177  and  _178
REMARK   78  A    between atoms: _183  and  _185
REMARK   79  A    between atoms: _185  and  _186
REMARK   80  A    between atoms: _185  and  _188
REMARK   81  A    between atoms: _188  and  _189
REMARK   82  A    between atoms: _189  and  _190
REMARK   83  A    between atoms: _190  and  _191
REMARK   84  A    between atoms: _191  and  _192
REMARK   85  A    between atoms: _196  and  _198
REMARK   86  A    between atoms: _198  and  _199
REMARK   87  A    between atoms: _201  and  _203
REMARK   88  A    between atoms: _203  and  _204
REMARK   89  A    between atoms: _203  and  _206
REMARK   90  A    between atoms: _206  and  _207
REMARK   91  A    between atoms: _212  and  _214
REMARK   92  A    between atoms: _214  and  _215
REMARK   93  A    between atoms: _214  and  _217
REMARK   94  A    between atoms: _217  and  _218
REMARK   95  A    between atoms: _218  and  _219
REMARK   96  A    between atoms: _222  and  _224
REMARK   97  A    between atoms: _224  and  _225
REMARK   98  A    between atoms: _224  and  _227
REMARK   99  A    between atoms: _230  and  _232
REMARK  100  A    between atoms: _232  and  _233
REMARK  101  A    between atoms: _232  and  _235
REMARK  102  A    between atoms: _235  and  _236
REMARK  103  A    between atoms: _236  and  _238
REMARK  104  A    between atoms: _238  and  MN_286
REMARK  105  A    between atoms: _239  and  _241
REMARK  106  A    between atoms: _241  and  _242
REMARK  107  A    between atoms: _241  and  _244
REMARK  108  A    between atoms: _244  and  _245
REMARK  109  A    between atoms: _245  and  _246
REMARK  110  A    between atoms: _246  and  _247
REMARK  111  A    between atoms: _247  and  _248
REMARK  112  A    between atoms: _252  and  _254
REMARK  113  A    between atoms: _254  and  _255
REMARK  114  A    between atoms: _254  and  _257
REMARK  115  A    between atoms: _260  and  _262
REMARK  116  A    between atoms: _262  and  _263
REMARK  117  A    between atoms: _262  and  _265
REMARK  118  A    between atoms: _265  and  _266
REMARK  119  A    between atoms: _268  and  _270
REMARK  120  A    between atoms: _270  and  _271
REMARK  121  A    between atoms: _270  and  _273
REMARK  122  A    between atoms: _273  and  _274
REMARK  123  A    between atoms: _274  and  _275
REMARK  124  A    between atoms: _275  and  _276
REMARK                            x       y       z     vdW  Elec       q    Type
REMARK                         _______ _______ _______ _____ _____    ______ ____
ROOT
ATOM      1  O   HOH     1       6.715  10.564  30.888  0.00  0.00    +0.000 OA
ENDROOT
TORSDOF 0
REMARK  Name = ../refined-set-2016/3qin/3qin_pocket.pdb
REMARK  124 active torsions:
REMARK  status: ('A' for Active; 'I' for Inactive)
REMARK    1  A    between atoms: _1  and  _3
REMARK    2  A    between atoms: _3  and  _4
REMARK    3  A    between atoms: _3  and  _6
REMARK    4  A    between atoms: _9  and  _11
REMARK    5  A    between atoms: _11  and  _12
REMARK    6  A    between atoms: _11  and  _14
REMARK    7  A    between atoms: _14  and  _15
REMARK    8  A    between atoms: _15  and  _16
REMARK    9  A    between atoms: _15  and  _17
REMARK   10  A    between atoms: _16  and  MN_285
REMARK   11  A    between atoms: _17  and  MN_286
REMARK   12  A    between atoms: _18  and  _20
REMARK   13  A    between atoms: _20  and  _21
REMARK   14  A    between atoms: _23  and  _25
REMARK   15  A    between atoms: _25  and  _26
REMARK   16  A    between atoms: _29  and  _31
REMARK   17  A    between atoms: _31  and  _32
REMARK   18  A    between atoms: _35  and  _37
REMARK   19  A    between atoms: _37  and  _38
REMARK   20  A    between atoms: _37  and  _40
REMARK   21  A    between atoms: _40  and  _41
REMARK   22  A    between atoms: _46  and  _48
REMARK   23  A    between atoms: _48  and  _49
REMARK   24  A    between atoms: _48  and  _51
REMARK   25  A    between atoms: _51  and  _52
REMARK   26  A    between atoms: _52  and  _53
REMARK   27  A    between atoms: _58  and  _60
REMARK   28  A    between atoms: _60  and  _61
REMARK   29  A    between atoms: _60  and  _63
REMARK   30  A    between atoms: _63  and  _64
REMARK   31  A    between atoms: _67  and  _69
REMARK   32  A    between atoms: _69  and  _70
REMARK   33  A    between atoms: _69  and  _72
REMARK   34  A    between atoms: _72  and  _73
REMARK   35  A    between atoms: _73  and  _74
REMARK   36  A    between atoms: _74  and  _75
REMARK   37  A    between atoms: _75  and  MN_285
REMARK   38  A    between atoms: _77  and  _79
REMARK   39  A    between atoms: _79  and  _80
REMARK   40  A    between atoms: _79  and  _82
REMARK   41  A    between atoms: _82  and  _83
REMARK   42  A    between atoms: _86  and  _88
REMARK   43  A    between atoms: _88  and  _89
REMARK   44  A    between atoms: _88  and  _91
REMARK   45  A    between atoms: _91  and  _92
REMARK   46  A    between atoms: _92  and  _94
REMARK   47  A    between atoms: _94  and  MN_285
REMARK   48  A    between atoms: _95  and  _97
REMARK   49  A    between atoms: _97  and  _98
REMARK   50  A    between atoms: _97  and  _100
REMARK   51  A    between atoms: _100  and  _101
REMARK   52  A    between atoms: _103  and  _105
REMARK   53  A    between atoms: _105  and  _106
REMARK   54  A    between atoms: _105  and  _108
REMARK   55  A    between atoms: _108  and  _109
REMARK   56  A    between atoms: _109  and  _110
REMARK   57  A    between atoms: _115  and  _117
REMARK   58  A    between atoms: _117  and  _118
REMARK   59  A    between atoms: _117  and  _120
REMARK   60  A    between atoms: _120  and  _121
REMARK   61  A    between atoms: _126  and  _127
REMARK   62  A    between atoms: _129  and  _131
REMARK   63  A    between atoms: _131  and  _132
REMARK   64  A    between atoms: _135  and  _137
REMARK   65  A    between atoms: _137  and  _138
REMARK   66  A    between atoms: _137  and  _140
REMARK   67  A    between atoms: _140  and  _141
REMARK   68  A    between atoms: _151  and  _153
REMARK   69  A    between atoms: _153  and  _154
REMARK   70  A    between atoms: _153  and  _156
REMARK   71  A    between atoms: _160  and  _161
REMARK   72  A    between atoms: _166  and  _168
REMARK   73  A    between atoms: _168  and  _169
REMARK   74  A    between atoms: _172  and  _174
REMARK   75  A    between atoms: _174  and  _175
REMARK   76  A    between atoms: _174  and  _177
REMARK   77  A    between atoms: _177  and  _178
REMARK   78  A    between atoms: _183  and  _185
REMARK   79  A    between atoms: _185  and  _186
REMARK   80  A    between atoms: _185  and  _188
REMARK   81  A    between atoms: _188  and  _189
REMARK   82  A    between atoms: _189  and  _190
REMARK   83  A    between atoms: _190  and  _191
REMARK   84  A    between atoms: _191  and  _192
REMARK   85  A    between atoms: _196  and  _198
REMARK   86  A    between atoms: _198  and  _199
REMARK   87  A    between atoms: _201  and  _203
REMARK   88  A    between atoms: _203  and  _204
REMARK   89  A    between atoms: _203  and  _206
REMARK   90  A    between atoms: _206  and  _207
REMARK   91  A    between atoms: _212  and  _214
REMARK   92  A    between atoms: _214  and  _215
REMARK   93  A    between atoms: _214  and  _217
REMARK   94  A    between atoms: _217  and  _218
REMARK   95  A    between atoms: _218  and  _219
REMARK   96  A    between atoms: _222  and  _224
REMARK   97  A    between atoms: _224  and  _225
REMARK   98  A    between atoms: _224  and  _227
REMARK   99  A    between atoms: _230  and  _232
REMARK  100  A    between atoms: _232  and  _233
REMARK  101  A    between atoms: _232  and  _235
REMARK  102  A    between atoms: _235  and  _236
REMARK  103  A    between atoms: _236  and  _238
REMARK  104  A    between atoms: _238  and  MN_286
REMARK  105  A    between atoms: _239  and  _241
REMARK  106  A    between atoms: _241  and  _242
REMARK  107  A    between atoms: _241  and  _244
REMARK  108  A    between atoms: _244  and  _245
REMARK  109  A    between atoms: _245  and  _246
REMARK  110  A    between atoms: _246  and  _247
REMARK  111  A    between atoms: _247  and  _248
REMARK  112  A    between atoms: _252  and  _254
REMARK  113  A    between atoms: _254  and  _255
REMARK  114  A    between atoms: _254  and  _257
REMARK  115  A    between atoms: _260  and  _262
REMARK  116  A    between atoms: _262  and  _263
REMARK  117  A    between atoms: _262  and  _265
REMARK  118  A    between atoms: _265  and  _266
REMARK  119  A    between atoms: _268  and  _270
REMARK  120  A    between atoms: _270  and  _271
REMARK  121  A    between atoms: _270  and  _273
REMARK  122  A    between atoms: _273  and  _274
REMARK  123  A    between atoms: _274  and  _275
REMARK  124  A    between atoms: _275  and  _276
REMARK                            x       y       z     vdW  Elec       q    Type
REMARK                         _______ _______ _______ _____ _____    ______ ____
ROOT
ATOM      1  O   HOH     1       2.601   2.850  24.646  0.00  0.00    +0.000 OA
ENDROOT
TORSDOF 0
REMARK  Name = ../refined-set-2016/3qin/3qin_pocket.pdb
REMARK  124 active torsions:
REMARK  status: ('A' for Active; 'I' for Inactive)
REMARK    1  A    between atoms: _1  and  _3
REMARK    2  A    between atoms: _3  and  _4
REMARK    3  A    between atoms: _3  and  _6
REMARK    4  A    between atoms: _9  and  _11
REMARK    5  A    between atoms: _11  and  _12
REMARK    6  A    between atoms: _11  and  _14
REMARK    7  A    between atoms: _14  and  _15
REMARK    8  A    between atoms: _15  and  _16
REMARK    9  A    between atoms: _15  and  _17
REMARK   10  A    between atoms: _16  and  MN_285
REMARK   11  A    between atoms: _17  and  MN_286
REMARK   12  A    between atoms: _18  and  _20
REMARK   13  A    between atoms: _20  and  _21
REMARK   14  A    between atoms: _23  and  _25
REMARK   15  A    between atoms: _25  and  _26
REMARK   16  A    between atoms: _29  and  _31
REMARK   17  A    between atoms: _31  and  _32
REMARK   18  A    between atoms: _35  and  _37
REMARK   19  A    between atoms: _37  and  _38
REMARK   20  A    between atoms: _37  and  _40
REMARK   21  A    between atoms: _40  and  _41
REMARK   22  A    between atoms: _46  and  _48
REMARK   23  A    between atoms: _48  and  _49
REMARK   24  A    between atoms: _48  and  _51
REMARK   25  A    between atoms: _51  and  _52
REMARK   26  A    between atoms: _52  and  _53
REMARK   27  A    between atoms: _58  and  _60
REMARK   28  A    between atoms: _60  and  _61
REMARK   29  A    between atoms: _60  and  _63
REMARK   30  A    between atoms: _63  and  _64
REMARK   31  A    between atoms: _67  and  _69
REMARK   32  A    between atoms: _69  and  _70
REMARK   33  A    between atoms: _69  and  _72
REMARK   34  A    between atoms: _72  and  _73
REMARK   35  A    between atoms: _73  and  _74
REMARK   36  A    between atoms: _74  and  _75
REMARK   37  A    between atoms: _75  and  MN_285
REMARK   38  A    between atoms: _77  and  _79
REMARK   39  A    between atoms: _79  and  _80
REMARK   40  A    between atoms: _79  and  _82
REMARK   41  A    between atoms: _82  and  _83
REMARK   42  A    between atoms: _86  and  _88
REMARK   43  A    between atoms: _88  and  _89
REMARK   44  A    between atoms: _88  and  _91
REMARK   45  A    between atoms: _91  and  _92
REMARK   46  A    between atoms: _92  and  _94
REMARK   47  A    between atoms: _94  and  MN_285
REMARK   48  A    between atoms: _95  and  _97
REMARK   49  A    between atoms: _97  and  _98
REMARK   50  A    between atoms: _97  and  _100
REMARK   51  A    between atoms: _100  and  _101
REMARK   52  A    between atoms: _103  and  _105
REMARK   53  A    between atoms: _105  and  _106
REMARK   54  A    between atoms: _105  and  _108
REMARK   55  A    between atoms: _108  and  _109
REMARK   56  A    between atoms: _109  and  _110
REMARK   57  A    between atoms: _115  and  _117
REMARK   58  A    between atoms: _117  and  _118
REMARK   59  A    between atoms: _117  and  _120
REMARK   60  A    between atoms: _120  and  _121
REMARK   61  A    between atoms: _126  and  _127
REMARK   62  A    between atoms: _129  and  _131
REMARK   63  A    between atoms: _131  and  _132
REMARK   64  A    between atoms: _135  and  _137
REMARK   65  A    between atoms: _137  and  _138
REMARK   66  A    between atoms: _137  and  _140
REMARK   67  A    between atoms: _140  and  _141
REMARK   68  A    between atoms: _151  and  _153
REMARK   69  A    between atoms: _153  and  _154
REMARK   70  A    between atoms: _153  and  _156
REMARK   71  A    between atoms: _160  and  _161
REMARK   72  A    between atoms: _166  and  _168
REMARK   73  A    between atoms: _168  and  _169
REMARK   74  A    between atoms: _172  and  _174
REMARK   75  A    between atoms: _174  and  _175
REMARK   76  A    between atoms: _174  and  _177
REMARK   77  A    between atoms: _177  and  _178
REMARK   78  A    between atoms: _183  and  _185
REMARK   79  A    between atoms: _185  and  _186
REMARK   80  A    between atoms: _185  and  _188
REMARK   81  A    between atoms: _188  and  _189
REMARK   82  A    between atoms: _189  and  _190
REMARK   83  A    between atoms: _190  and  _191
REMARK   84  A    between atoms: _191  and  _192
REMARK   85  A    between atoms: _196  and  _198
REMARK   86  A    between atoms: _198  and  _199
REMARK   87  A    between atoms: _201  and  _203
REMARK   88  A    between atoms: _203  and  _204
REMARK   89  A    between atoms: _203  and  _206
REMARK   90  A    between atoms: _206  and  _207
REMARK   91  A    between atoms: _212  and  _214
REMARK   92  A    between atoms: _214  and  _215
REMARK   93  A    between atoms: _214  and  _217
REMARK   94  A    between atoms: _217  and  _218
REMARK   95  A    between atoms: _218  and  _219
REMARK   96  A    between atoms: _222  and  _224
REMARK   97  A    between atoms: _224  and  _225
REMARK   98  A    between atoms: _224  and  _227
REMARK   99  A    between atoms: _230  and  _232
REMARK  100  A    between atoms: _232  and  _233
REMARK  101  A    between atoms: _232  and  _235
REMARK  102  A    between atoms: _235  and  _236
REMARK  103  A    between atoms: _236  and  _238
REMARK  104  A    between atoms: _238  and  MN_286
REMARK  105  A    between atoms: _239  and  _241
REMARK  106  A    between atoms: _241  and  _242
REMARK  107  A    between atoms: _241  and  _244
REMARK  108  A    between atoms: _244  and  _245
REMARK  109  A    between atoms: _245  and  _246
REMARK  110  A    between atoms: _246  and  _247
REMARK  111  A    between atoms: _247  and  _248
REMARK  112  A    between atoms: _252  and  _254
REMARK  113  A    between atoms: _254  and  _255
REMARK  114  A    between atoms: _254  and  _257
REMARK  115  A    between atoms: _260  and  _262
REMARK  116  A    between atoms: _262  and  _263
REMARK  117  A    between atoms: _262  and  _265
REMARK  118  A    between atoms: _265  and  _266
REMARK  119  A    between atoms: _268  and  _270
REMARK  120  A    between atoms: _270  and  _271
REMARK  121  A    between atoms: _270  and  _273
REMARK  122  A    between atoms: _273  and  _274
REMARK  123  A    between atoms: _274  and  _275
REMARK  124  A    between atoms: _275  and  _276
REMARK                            x       y       z     vdW  Elec       q    Type
REMARK                         _______ _______ _______ _____ _____    ______ ____
ROOT
ATOM      1  O   HOH     1       9.719   3.661  32.483  0.00  0.00    +0.000 OA
ENDROOT
TORSDOF 0
REMARK  Name = ../refined-set-2016/3qin/3qin_pocket.pdb
REMARK  124 active torsions:
REMARK  status: ('A' for Active; 'I' for Inactive)
REMARK    1  A    between atoms: _1  and  _3
REMARK    2  A    between atoms: _3  and  _4
REMARK    3  A    between atoms: _3  and  _6
REMARK    4  A    between atoms: _9  and  _11
REMARK    5  A    between atoms: _11  and  _12
REMARK    6  A    between atoms: _11  and  _14
REMARK    7  A    between atoms: _14  and  _15
REMARK    8  A    between atoms: _15  and  _16
REMARK    9  A    between atoms: _15  and  _17
REMARK   10  A    between atoms: _16  and  MN_285
REMARK   11  A    between atoms: _17  and  MN_286
REMARK   12  A    between atoms: _18  and  _20
REMARK   13  A    between atoms: _20  and  _21
REMARK   14  A    between atoms: _23  and  _25
REMARK   15  A    between atoms: _25  and  _26
REMARK   16  A    between atoms: _29  and  _31
REMARK   17  A    between atoms: _31  and  _32
REMARK   18  A    between atoms: _35  and  _37
REMARK   19  A    between atoms: _37  and  _38
REMARK   20  A    between atoms: _37  and  _40
REMARK   21  A    between atoms: _40  and  _41
REMARK   22  A    between atoms: _46  and  _48
REMARK   23  A    between atoms: _48  and  _49
REMARK   24  A    between atoms: _48  and  _51
REMARK   25  A    between atoms: _51  and  _52
REMARK   26  A    between atoms: _52  and  _53
REMARK   27  A    between atoms: _58  and  _60
REMARK   28  A    between atoms: _60  and  _61
REMARK   29  A    between atoms: _60  and  _63
REMARK   30  A    between atoms: _63  and  _64
REMARK   31  A    between atoms: _67  and  _69
REMARK   32  A    between atoms: _69  and  _70
REMARK   33  A    between atoms: _69  and  _72
REMARK   34  A    between atoms: _72  and  _73
REMARK   35  A    between atoms: _73  and  _74
REMARK   36  A    between atoms: _74  and  _75
REMARK   37  A    between atoms: _75  and  MN_285
REMARK   38  A    between atoms: _77  and  _79
REMARK   39  A    between atoms: _79  and  _80
REMARK   40  A    between atoms: _79  and  _82
REMARK   41  A    between atoms: _82  and  _83
REMARK   42  A    between atoms: _86  and  _88
REMARK   43  A    between atoms: _88  and  _89
REMARK   44  A    between atoms: _88  and  _91
REMARK   45  A    between atoms: _91  and  _92
REMARK   46  A    between atoms: _92  and  _94
REMARK   47  A    between atoms: _94  and  MN_285
REMARK   48  A    between atoms: _95  and  _97
REMARK   49  A    between atoms: _97  and  _98
REMARK   50  A    between atoms: _97  and  _100
REMARK   51  A    between atoms: _100  and  _101
REMARK   52  A    between atoms: _103  and  _105
REMARK   53  A    between atoms: _105  and  _106
REMARK   54  A    between atoms: _105  and  _108
REMARK   55  A    between atoms: _108  and  _109
REMARK   56  A    between atoms: _109  and  _110
REMARK   57  A    between atoms: _115  and  _117
REMARK   58  A    between atoms: _117  and  _118
REMARK   59  A    between atoms: _117  and  _120
REMARK   60  A    between atoms: _120  and  _121
REMARK   61  A    between atoms: _126  and  _127
REMARK   62  A    between atoms: _129  and  _131
REMARK   63  A    between atoms: _131  and  _132
REMARK   64  A    between atoms: _135  and  _137
REMARK   65  A    between atoms: _137  and  _138
REMARK   66  A    between atoms: _137  and  _140
REMARK   67  A    between atoms: _140  and  _141
REMARK   68  A    between atoms: _151  and  _153
REMARK   69  A    between atoms: _153  and  _154
REMARK   70  A    between atoms: _153  and  _156
REMARK   71  A    between atoms: _160  and  _161
REMARK   72  A    between atoms: _166  and  _168
REMARK   73  A    between atoms: _168  and  _169
REMARK   74  A    between atoms: _172  and  _174
REMARK   75  A    between atoms: _174  and  _175
REMARK   76  A    between atoms: _174  and  _177
REMARK   77  A    between atoms: _177  and  _178
REMARK   78  A    between atoms: _183  and  _185
REMARK   79  A    between atoms: _185  and  _186
REMARK   80  A    between atoms: _185  and  _188
REMARK   81  A    between atoms: _188  and  _189
REMARK   82  A    between atoms: _189  and  _190
REMARK   83  A    between atoms: _190  and  _191
REMARK   84  A    between atoms: _191  and  _192
REMARK   85  A    between atoms: _196  and  _198
REMARK   86  A    between atoms: _198  and  _199
REMARK   87  A    between atoms: _201  and  _203
REMARK   88  A    between atoms: _203  and  _204
REMARK   89  A    between atoms: _203  and  _206
REMARK   90  A    between atoms: _206  and  _207
REMARK   91  A    between atoms: _212  and  _214
REMARK   92  A    between atoms: _214  and  _215
REMARK   93  A    between atoms: _214  and  _217
REMARK   94  A    between atoms: _217  and  _218
REMARK   95  A    between atoms: _218  and  _219
REMARK   96  A    between atoms: _222  and  _224
REMARK   97  A    between atoms: _224  and  _225
REMARK   98  A    between atoms: _224  and  _227
REMARK   99  A    between atoms: _230  and  _232
REMARK  100  A    between atoms: _232  and  _233
REMARK  101  A    between atoms: _232  and  _235
REMARK  102  A    between atoms: _235  and  _236
REMARK  103  A    between atoms: _236  and  _238
REMARK  104  A    between atoms: _238  and  MN_286
REMARK  105  A    between atoms: _239  and  _241
REMARK  106  A    between atoms: _241  and  _242
REMARK  107  A    between atoms: _241  and  _244
REMARK  108  A    between atoms: _244  and  _245
REMARK  109  A    between atoms: _245  and  _246
REMARK  110  A    between atoms: _246  and  _247
REMARK  111  A    between atoms: _247  and  _248
REMARK  112  A    between atoms: _252  and  _254
REMARK  113  A    between atoms: _254  and  _255
REMARK  114  A    between atoms: _254  and  _257
REMARK  115  A    between atoms: _260  and  _262
REMARK  116  A    between atoms: _262  and  _263
REMARK  117  A    between atoms: _262  and  _265
REMARK  118  A    between atoms: _265  and  _266
REMARK  119  A    between atoms: _268  and  _270
REMARK  120  A    between atoms: _270  and  _271
REMARK  121  A    between atoms: _270  and  _273
REMARK  122  A    between atoms: _273  and  _274
REMARK  123  A    between atoms: _274  and  _275
REMARK  124  A    between atoms: _275  and  _276
REMARK                            x       y       z     vdW  Elec       q    Type
REMARK                         _______ _______ _______ _____ _____    ______ ____
ROOT
ATOM      1  O   HOH     1       5.545  -1.326  29.465  0.00  0.00    +0.000 OA
ENDROOT
TORSDOF 0
REMARK  Name = ../refined-set-2016/3qin/3qin_pocket.pdb
REMARK  124 active torsions:
REMARK  status: ('A' for Active; 'I' for Inactive)
REMARK    1  A    between atoms: _1  and  _3
REMARK    2  A    between atoms: _3  and  _4
REMARK    3  A    between atoms: _3  and  _6
REMARK    4  A    between atoms: _9  and  _11
REMARK    5  A    between atoms: _11  and  _12
REMARK    6  A    between atoms: _11  and  _14
REMARK    7  A    between atoms: _14  and  _15
REMARK    8  A    between atoms: _15  and  _16
REMARK    9  A    between atoms: _15  and  _17
REMARK   10  A    between atoms: _16  and  MN_285
REMARK   11  A    between atoms: _17  and  MN_286
REMARK   12  A    between atoms: _18  and  _20
REMARK   13  A    between atoms: _20  and  _21
REMARK   14  A    between atoms: _23  and  _25
REMARK   15  A    between atoms: _25  and  _26
REMARK   16  A    between atoms: _29  and  _31
REMARK   17  A    between atoms: _31  and  _32
REMARK   18  A    between atoms: _35  and  _37
REMARK   19  A    between atoms: _37  and  _38
REMARK   20  A    between atoms: _37  and  _40
REMARK   21  A    between atoms: _40  and  _41
REMARK   22  A    between atoms: _46  and  _48
REMARK   23  A    between atoms: _48  and  _49
REMARK   24  A    between atoms: _48  and  _51
REMARK   25  A    between atoms: _51  and  _52
REMARK   26  A    between atoms: _52  and  _53
REMARK   27  A    between atoms: _58  and  _60
REMARK   28  A    between atoms: _60  and  _61
REMARK   29  A    between atoms: _60  and  _63
REMARK   30  A    between atoms: _63  and  _64
REMARK   31  A    between atoms: _67  and  _69
REMARK   32  A    between atoms: _69  and  _70
REMARK   33  A    between atoms: _69  and  _72
REMARK   34  A    between atoms: _72  and  _73
REMARK   35  A    between atoms: _73  and  _74
REMARK   36  A    between atoms: _74  and  _75
REMARK   37  A    between atoms: _75  and  MN_285
REMARK   38  A    between atoms: _77  and  _79
REMARK   39  A    between atoms: _79  and  _80
REMARK   40  A    between atoms: _79  and  _82
REMARK   41  A    between atoms: _82  and  _83
REMARK   42  A    between atoms: _86  and  _88
REMARK   43  A    between atoms: _88  and  _89
REMARK   44  A    between atoms: _88  and  _91
REMARK   45  A    between atoms: _91  and  _92
REMARK   46  A    between atoms: _92  and  _94
REMARK   47  A    between atoms: _94  and  MN_285
REMARK   48  A    between atoms: _95  and  _97
REMARK   49  A    between atoms: _97  and  _98
REMARK   50  A    between atoms: _97  and  _100
REMARK   51  A    between atoms: _100  and  _101
REMARK   52  A    between atoms: _103  and  _105
REMARK   53  A    between atoms: _105  and  _106
REMARK   54  A    between atoms: _105  and  _108
REMARK   55  A    between atoms: _108  and  _109
REMARK   56  A    between atoms: _109  and  _110
REMARK   57  A    between atoms: _115  and  _117
REMARK   58  A    between atoms: _117  and  _118
REMARK   59  A    between atoms: _117  and  _120
REMARK   60  A    between atoms: _120  and  _121
REMARK   61  A    between atoms: _126  and  _127
REMARK   62  A    between atoms: _129  and  _131
REMARK   63  A    between atoms: _131  and  _132
REMARK   64  A    between atoms: _135  and  _137
REMARK   65  A    between atoms: _137  and  _138
REMARK   66  A    between atoms: _137  and  _140
REMARK   67  A    between atoms: _140  and  _141
REMARK   68  A    between atoms: _151  and  _153
REMARK   69  A    between atoms: _153  and  _154
REMARK   70  A    between atoms: _153  and  _156
REMARK   71  A    between atoms: _160  and  _161
REMARK   72  A    between atoms: _166  and  _168
REMARK   73  A    between atoms: _168  and  _169
REMARK   74  A    between atoms: _172  and  _174
REMARK   75  A    between atoms: _174  and  _175
REMARK   76  A    between atoms: _174  and  _177
REMARK   77  A    between atoms: _177  and  _178
REMARK   78  A    between atoms: _183  and  _185
REMARK   79  A    between atoms: _185  and  _186
REMARK   80  A    between atoms: _185  and  _188
REMARK   81  A    between atoms: _188  and  _189
REMARK   82  A    between atoms: _189  and  _190
REMARK   83  A    between atoms: _190  and  _191
REMARK   84  A    between atoms: _191  and  _192
REMARK   85  A    between atoms: _196  and  _198
REMARK   86  A    between atoms: _198  and  _199
REMARK   87  A    between atoms: _201  and  _203
REMARK   88  A    between atoms: _203  and  _204
REMARK   89  A    between atoms: _203  and  _206
REMARK   90  A    between atoms: _206  and  _207
REMARK   91  A    between atoms: _212  and  _214
REMARK   92  A    between atoms: _214  and  _215
REMARK   93  A    between atoms: _214  and  _217
REMARK   94  A    between atoms: _217  and  _218
REMARK   95  A    between atoms: _218  and  _219
REMARK   96  A    between atoms: _222  and  _224
REMARK   97  A    between atoms: _224  and  _225
REMARK   98  A    between atoms: _224  and  _227
REMARK   99  A    between atoms: _230  and  _232
REMARK  100  A    between atoms: _232  and  _233
REMARK  101  A    between atoms: _232  and  _235
REMARK  102  A    between atoms: _235  and  _236
REMARK  103  A    between atoms: _236  and  _238
REMARK  104  A    between atoms: _238  and  MN_286
REMARK  105  A    between atoms: _239  and  _241
REMARK  106  A    between atoms: _241  and  _242
REMARK  107  A    between atoms: _241  and  _244
REMARK  108  A    between atoms: _244  and  _245
REMARK  109  A    between atoms: _245  and  _246
REMARK  110  A    between atoms: _246  and  _247
REMARK  111  A    between atoms: _247  and  _248
REMARK  112  A    between atoms: _252  and  _254
REMARK  113  A    between atoms: _254  and  _255
REMARK  114  A    between atoms: _254  and  _257
REMARK  115  A    between atoms: _260  and  _262
REMARK  116  A    between atoms: _262  and  _263
REMARK  117  A    between atoms: _262  and  _265
REMARK  118  A    between atoms: _265  and  _266
REMARK  119  A    between atoms: _268  and  _270
REMARK  120  A    between atoms: _270  and  _271
REMARK  121  A    between atoms: _270  and  _273
REMARK  122  A    between atoms: _273  and  _274
REMARK  123  A    between atoms: _274  and  _275
REMARK  124  A    between atoms: _275  and  _276
REMARK                            x       y       z     vdW  Elec       q    Type
REMARK                         _______ _______ _______ _____ _____    ______ ____
ROOT
ATOM      1  O   HOH     1       4.339   7.701  20.298  0.00  0.00    +0.000 OA
ENDROOT
TORSDOF 0
REMARK  Name = ../refined-set-2016/3qin/3qin_pocket.pdb
REMARK  124 active torsions:
REMARK  status: ('A' for Active; 'I' for Inactive)
REMARK    1  A    between atoms: _1  and  _3
REMARK    2  A    between atoms: _3  and  _4
REMARK    3  A    between atoms: _3  and  _6
REMARK    4  A    between atoms: _9  and  _11
REMARK    5  A    between atoms: _11  and  _12
REMARK    6  A    between atoms: _11  and  _14
REMARK    7  A    between atoms: _14  and  _15
REMARK    8  A    between atoms: _15  and  _16
REMARK    9  A    between atoms: _15  and  _17
REMARK   10  A    between atoms: _16  and  MN_285
REMARK   11  A    between atoms: _17  and  MN_286
REMARK   12  A    between atoms: _18  and  _20
REMARK   13  A    between atoms: _20  and  _21
REMARK   14  A    between atoms: _23  and  _25
REMARK   15  A    between atoms: _25  and  _26
REMARK   16  A    between atoms: _29  and  _31
REMARK   17  A    between atoms: _31  and  _32
REMARK   18  A    between atoms: _35  and  _37
REMARK   19  A    between atoms: _37  and  _38
REMARK   20  A    between atoms: _37  and  _40
REMARK   21  A    between atoms: _40  and  _41
REMARK   22  A    between atoms: _46  and  _48
REMARK   23  A    between atoms: _48  and  _49
REMARK   24  A    between atoms: _48  and  _51
REMARK   25  A    between atoms: _51  and  _52
REMARK   26  A    between atoms: _52  and  _53
REMARK   27  A    between atoms: _58  and  _60
REMARK   28  A    between atoms: _60  and  _61
REMARK   29  A    between atoms: _60  and  _63
REMARK   30  A    between atoms: _63  and  _64
REMARK   31  A    between atoms: _67  and  _69
REMARK   32  A    between atoms: _69  and  _70
REMARK   33  A    between atoms: _69  and  _72
REMARK   34  A    between atoms: _72  and  _73
REMARK   35  A    between atoms: _73  and  _74
REMARK   36  A    between atoms: _74  and  _75
REMARK   37  A    between atoms: _75  and  MN_285
REMARK   38  A    between atoms: _77  and  _79
REMARK   39  A    between atoms: _79  and  _80
REMARK   40  A    between atoms: _79  and  _82
REMARK   41  A    between atoms: _82  and  _83
REMARK   42  A    between atoms: _86  and  _88
REMARK   43  A    between atoms: _88  and  _89
REMARK   44  A    between atoms: _88  and  _91
REMARK   45  A    between atoms: _91  and  _92
REMARK   46  A    between atoms: _92  and  _94
REMARK   47  A    between atoms: _94  and  MN_285
REMARK   48  A    between atoms: _95  and  _97
REMARK   49  A    between atoms: _97  and  _98
REMARK   50  A    between atoms: _97  and  _100
REMARK   51  A    between atoms: _100  and  _101
REMARK   52  A    between atoms: _103  and  _105
REMARK   53  A    between atoms: _105  and  _106
REMARK   54  A    between atoms: _105  and  _108
REMARK   55  A    between atoms: _108  and  _109
REMARK   56  A    between atoms: _109  and  _110
REMARK   57  A    between atoms: _115  and  _117
REMARK   58  A    between atoms: _117  and  _118
REMARK   59  A    between atoms: _117  and  _120
REMARK   60  A    between atoms: _120  and  _121
REMARK   61  A    between atoms: _126  and  _127
REMARK   62  A    between atoms: _129  and  _131
REMARK   63  A    between atoms: _131  and  _132
REMARK   64  A    between atoms: _135  and  _137
REMARK   65  A    between atoms: _137  and  _138
REMARK   66  A    between atoms: _137  and  _140
REMARK   67  A    between atoms: _140  and  _141
REMARK   68  A    between atoms: _151  and  _153
REMARK   69  A    between atoms: _153  and  _154
REMARK   70  A    between atoms: _153  and  _156
REMARK   71  A    between atoms: _160  and  _161
REMARK   72  A    between atoms: _166  and  _168
REMARK   73  A    between atoms: _168  and  _169
REMARK   74  A    between atoms: _172  and  _174
REMARK   75  A    between atoms: _174  and  _175
REMARK   76  A    between atoms: _174  and  _177
REMARK   77  A    between atoms: _177  and  _178
REMARK   78  A    between atoms: _183  and  _185
REMARK   79  A    between atoms: _185  and  _186
REMARK   80  A    between atoms: _185  and  _188
REMARK   81  A    between atoms: _188  and  _189
REMARK   82  A    between atoms: _189  and  _190
REMARK   83  A    between atoms: _190  and  _191
REMARK   84  A    between atoms: _191  and  _192
REMARK   85  A    between atoms: _196  and  _198
REMARK   86  A    between atoms: _198  and  _199
REMARK   87  A    between atoms: _201  and  _203
REMARK   88  A    between atoms: _203  and  _204
REMARK   89  A    between atoms: _203  and  _206
REMARK   90  A    between atoms: _206  and  _207
REMARK   91  A    between atoms: _212  and  _214
REMARK   92  A    between atoms: _214  and  _215
REMARK   93  A    between atoms: _214  and  _217
REMARK   94  A    between atoms: _217  and  _218
REMARK   95  A    between atoms: _218  and  _219
REMARK   96  A    between atoms: _222  and  _224
REMARK   97  A    between atoms: _224  and  _225
REMARK   98  A    between atoms: _224  and  _227
REMARK   99  A    between atoms: _230  and  _232
REMARK  100  A    between atoms: _232  and  _233
REMARK  101  A    between atoms: _232  and  _235
REMARK  102  A    between atoms: _235  and  _236
REMARK  103  A    between atoms: _236  and  _238
REMARK  104  A    between atoms: _238  and  MN_286
REMARK  105  A    between atoms: _239  and  _241
REMARK  106  A    between atoms: _241  and  _242
REMARK  107  A    between atoms: _241  and  _244
REMARK  108  A    between atoms: _244  and  _245
REMARK  109  A    between atoms: _245  and  _246
REMARK  110  A    between atoms: _246  and  _247
REMARK  111  A    between atoms: _247  and  _248
REMARK  112  A    between atoms: _252  and  _254
REMARK  113  A    between atoms: _254  and  _255
REMARK  114  A    between atoms: _254  and  _257
REMARK  115  A    between atoms: _260  and  _262
REMARK  116  A    between atoms: _262  and  _263
REMARK  117  A    between atoms: _262  and  _265
REMARK  118  A    between atoms: _265  and  _266
REMARK  119  A    between atoms: _268  and  _270
REMARK  120  A    between atoms: _270  and  _271
REMARK  121  A    between atoms: _270  and  _273
REMARK  122  A    between atoms: _273  and  _274
REMARK  123  A    between atoms: _274  and  _275
REMARK  124  A    between atoms: _275  and  _276
REMARK                            x       y       z     vdW  Elec       q    Type
REMARK                         _______ _______ _______ _____ _____    ______ ____
ROOT
ATOM      1  O   HOH     1       4.945  13.919  33.082  0.00  0.00    +0.000 OA
ENDROOT
TORSDOF 0
REMARK  Name = ../refined-set-2016/3qin/3qin_pocket.pdb
REMARK  124 active torsions:
REMARK  status: ('A' for Active; 'I' for Inactive)
REMARK    1  A    between atoms: _1  and  _3
REMARK    2  A    between atoms: _3  and  _4
REMARK    3  A    between atoms: _3  and  _6
REMARK    4  A    between atoms: _9  and  _11
REMARK    5  A    between atoms: _11  and  _12
REMARK    6  A    between atoms: _11  and  _14
REMARK    7  A    between atoms: _14  and  _15
REMARK    8  A    between atoms: _15  and  _16
REMARK    9  A    between atoms: _15  and  _17
REMARK   10  A    between atoms: _16  and  MN_285
REMARK   11  A    between atoms: _17  and  MN_286
REMARK   12  A    between atoms: _18  and  _20
REMARK   13  A    between atoms: _20  and  _21
REMARK   14  A    between atoms: _23  and  _25
REMARK   15  A    between atoms: _25  and  _26
REMARK   16  A    between atoms: _29  and  _31
REMARK   17  A    between atoms: _31  and  _32
REMARK   18  A    between atoms: _35  and  _37
REMARK   19  A    between atoms: _37  and  _38
REMARK   20  A    between atoms: _37  and  _40
REMARK   21  A    between atoms: _40  and  _41
REMARK   22  A    between atoms: _46  and  _48
REMARK   23  A    between atoms: _48  and  _49
REMARK   24  A    between atoms: _48  and  _51
REMARK   25  A    between atoms: _51  and  _52
REMARK   26  A    between atoms: _52  and  _53
REMARK   27  A    between atoms: _58  and  _60
REMARK   28  A    between atoms: _60  and  _61
REMARK   29  A    between atoms: _60  and  _63
REMARK   30  A    between atoms: _63  and  _64
REMARK   31  A    between atoms: _67  and  _69
REMARK   32  A    between atoms: _69  and  _70
REMARK   33  A    between atoms: _69  and  _72
REMARK   34  A    between atoms: _72  and  _73
REMARK   35  A    between atoms: _73  and  _74
REMARK   36  A    between atoms: _74  and  _75
REMARK   37  A    between atoms: _75  and  MN_285
REMARK   38  A    between atoms: _77  and  _79
REMARK   39  A    between atoms: _79  and  _80
REMARK   40  A    between atoms: _79  and  _82
REMARK   41  A    between atoms: _82  and  _83
REMARK   42  A    between atoms: _86  and  _88
REMARK   43  A    between atoms: _88  and  _89
REMARK   44  A    between atoms: _88  and  _91
REMARK   45  A    between atoms: _91  and  _92
REMARK   46  A    between atoms: _92  and  _94
REMARK   47  A    between atoms: _94  and  MN_285
REMARK   48  A    between atoms: _95  and  _97
REMARK   49  A    between atoms: _97  and  _98
REMARK   50  A    between atoms: _97  and  _100
REMARK   51  A    between atoms: _100  and  _101
REMARK   52  A    between atoms: _103  and  _105
REMARK   53  A    between atoms: _105  and  _106
REMARK   54  A    between atoms: _105  and  _108
REMARK   55  A    between atoms: _108  and  _109
REMARK   56  A    between atoms: _109  and  _110
REMARK   57  A    between atoms: _115  and  _117
REMARK   58  A    between atoms: _117  and  _118
REMARK   59  A    between atoms: _117  and  _120
REMARK   60  A    between atoms: _120  and  _121
REMARK   61  A    between atoms: _126  and  _127
REMARK   62  A    between atoms: _129  and  _131
REMARK   63  A    between atoms: _131  and  _132
REMARK   64  A    between atoms: _135  and  _137
REMARK   65  A    between atoms: _137  and  _138
REMARK   66  A    between atoms: _137  and  _140
REMARK   67  A    between atoms: _140  and  _141
REMARK   68  A    between atoms: _151  and  _153
REMARK   69  A    between atoms: _153  and  _154
REMARK   70  A    between atoms: _153  and  _156
REMARK   71  A    between atoms: _160  and  _161
REMARK   72  A    between atoms: _166  and  _168
REMARK   73  A    between atoms: _168  and  _169
REMARK   74  A    between atoms: _172  and  _174
REMARK   75  A    between atoms: _174  and  _175
REMARK   76  A    between atoms: _174  and  _177
REMARK   77  A    between atoms: _177  and  _178
REMARK   78  A    between atoms: _183  and  _185
REMARK   79  A    between atoms: _185  and  _186
REMARK   80  A    between atoms: _185  and  _188
REMARK   81  A    between atoms: _188  and  _189
REMARK   82  A    between atoms: _189  and  _190
REMARK   83  A    between atoms: _190  and  _191
REMARK   84  A    between atoms: _191  and  _192
REMARK   85  A    between atoms: _196  and  _198
REMARK   86  A    between atoms: _198  and  _199
REMARK   87  A    between atoms: _201  and  _203
REMARK   88  A    between atoms: _203  and  _204
REMARK   89  A    between atoms: _203  and  _206
REMARK   90  A    between atoms: _206  and  _207
REMARK   91  A    between atoms: _212  and  _214
REMARK   92  A    between atoms: _214  and  _215
REMARK   93  A    between atoms: _214  and  _217
REMARK   94  A    between atoms: _217  and  _218
REMARK   95  A    between atoms: _218  and  _219
REMARK   96  A    between atoms: _222  and  _224
REMARK   97  A    between atoms: _224  and  _225
REMARK   98  A    between atoms: _224  and  _227
REMARK   99  A    between atoms: _230  and  _232
REMARK  100  A    between atoms: _232  and  _233
REMARK  101  A    between atoms: _232  and  _235
REMARK  102  A    between atoms: _235  and  _236
REMARK  103  A    between atoms: _236  and  _238
REMARK  104  A    between atoms: _238  and  MN_286
REMARK  105  A    between atoms: _239  and  _241
REMARK  106  A    between atoms: _241  and  _242
REMARK  107  A    between atoms: _241  and  _244
REMARK  108  A    between atoms: _244  and  _245
REMARK  109  A    between atoms: _245  and  _246
REMARK  110  A    between atoms: _246  and  _247
REMARK  111  A    between atoms: _247  and  _248
REMARK  112  A    between atoms: _252  and  _254
REMARK  113  A    between atoms: _254  and  _255
REMARK  114  A    between atoms: _254  and  _257
REMARK  115  A    between atoms: _260  and  _262
REMARK  116  A    between atoms: _262  and  _263
REMARK  117  A    between atoms: _262  and  _265
REMARK  118  A    between atoms: _265  and  _266
REMARK  119  A    between atoms: _268  and  _270
REMARK  120  A    between atoms: _270  and  _271
REMARK  121  A    between atoms: _270  and  _273
REMARK  122  A    between atoms: _273  and  _274
REMARK  123  A    between atoms: _274  and  _275
REMARK  124  A    between atoms: _275  and  _276
REMARK                            x       y       z     vdW  Elec       q    Type
REMARK                         _______ _______ _______ _____ _____    ______ ____
ROOT
ATOM      1  O   HOH     1       6.899  11.384  35.616  0.00  0.00    +0.000 OA
ENDROOT
TORSDOF 0
REMARK  Name = ../refined-set-2016/3qin/3qin_pocket.pdb
REMARK  124 active torsions:
REMARK  status: ('A' for Active; 'I' for Inactive)
REMARK    1  A    between atoms: _1  and  _3
REMARK    2  A    between atoms: _3  and  _4
REMARK    3  A    between atoms: _3  and  _6
REMARK    4  A    between atoms: _9  and  _11
REMARK    5  A    between atoms: _11  and  _12
REMARK    6  A    between atoms: _11  and  _14
REMARK    7  A    between atoms: _14  and  _15
REMARK    8  A    between atoms: _15  and  _16
REMARK    9  A    between atoms: _15  and  _17
REMARK   10  A    between atoms: _16  and  MN_285
REMARK   11  A    between atoms: _17  and  MN_286
REMARK   12  A    between atoms: _18  and  _20
REMARK   13  A    between atoms: _20  and  _21
REMARK   14  A    between atoms: _23  and  _25
REMARK   15  A    between atoms: _25  and  _26
REMARK   16  A    between atoms: _29  and  _31
REMARK   17  A    between atoms: _31  and  _32
REMARK   18  A    between atoms: _35  and  _37
REMARK   19  A    between atoms: _37  and  _38
REMARK   20  A    between atoms: _37  and  _40
REMARK   21  A    between atoms: _40  and  _41
REMARK   22  A    between atoms: _46  and  _48
REMARK   23  A    between atoms: _48  and  _49
REMARK   24  A    between atoms: _48  and  _51
REMARK   25  A    between atoms: _51  and  _52
REMARK   26  A    between atoms: _52  and  _53
REMARK   27  A    between atoms: _58  and  _60
REMARK   28  A    between atoms: _60  and  _61
REMARK   29  A    between atoms: _60  and  _63
REMARK   30  A    between atoms: _63  and  _64
REMARK   31  A    between atoms: _67  and  _69
REMARK   32  A    between atoms: _69  and  _70
REMARK   33  A    between atoms: _69  and  _72
REMARK   34  A    between atoms: _72  and  _73
REMARK   35  A    between atoms: _73  and  _74
REMARK   36  A    between atoms: _74  and  _75
REMARK   37  A    between atoms: _75  and  MN_285
REMARK   38  A    between atoms: _77  and  _79
REMARK   39  A    between atoms: _79  and  _80
REMARK   40  A    between atoms: _79  and  _82
REMARK   41  A    between atoms: _82  and  _83
REMARK   42  A    between atoms: _86  and  _88
REMARK   43  A    between atoms: _88  and  _89
REMARK   44  A    between atoms: _88  and  _91
REMARK   45  A    between atoms: _91  and  _92
REMARK   46  A    between atoms: _92  and  _94
REMARK   47  A    between atoms: _94  and  MN_285
REMARK   48  A    between atoms: _95  and  _97
REMARK   49  A    between atoms: _97  and  _98
REMARK   50  A    between atoms: _97  and  _100
REMARK   51  A    between atoms: _100  and  _101
REMARK   52  A    between atoms: _103  and  _105
REMARK   53  A    between atoms: _105  and  _106
REMARK   54  A    between atoms: _105  and  _108
REMARK   55  A    between atoms: _108  and  _109
REMARK   56  A    between atoms: _109  and  _110
REMARK   57  A    between atoms: _115  and  _117
REMARK   58  A    between atoms: _117  and  _118
REMARK   59  A    between atoms: _117  and  _120
REMARK   60  A    between atoms: _120  and  _121
REMARK   61  A    between atoms: _126  and  _127
REMARK   62  A    between atoms: _129  and  _131
REMARK   63  A    between atoms: _131  and  _132
REMARK   64  A    between atoms: _135  and  _137
REMARK   65  A    between atoms: _137  and  _138
REMARK   66  A    between atoms: _137  and  _140
REMARK   67  A    between atoms: _140  and  _141
REMARK   68  A    between atoms: _151  and  _153
REMARK   69  A    between atoms: _153  and  _154
REMARK   70  A    between atoms: _153  and  _156
REMARK   71  A    between atoms: _160  and  _161
REMARK   72  A    between atoms: _166  and  _168
REMARK   73  A    between atoms: _168  and  _169
REMARK   74  A    between atoms: _172  and  _174
REMARK   75  A    between atoms: _174  and  _175
REMARK   76  A    between atoms: _174  and  _177
REMARK   77  A    between atoms: _177  and  _178
REMARK   78  A    between atoms: _183  and  _185
REMARK   79  A    between atoms: _185  and  _186
REMARK   80  A    between atoms: _185  and  _188
REMARK   81  A    between atoms: _188  and  _189
REMARK   82  A    between atoms: _189  and  _190
REMARK   83  A    between atoms: _190  and  _191
REMARK   84  A    between atoms: _191  and  _192
REMARK   85  A    between atoms: _196  and  _198
REMARK   86  A    between atoms: _198  and  _199
REMARK   87  A    between atoms: _201  and  _203
REMARK   88  A    between atoms: _203  and  _204
REMARK   89  A    between atoms: _203  and  _206
REMARK   90  A    between atoms: _206  and  _207
REMARK   91  A    between atoms: _212  and  _214
REMARK   92  A    between atoms: _214  and  _215
REMARK   93  A    between atoms: _214  and  _217
REMARK   94  A    between atoms: _217  and  _218
REMARK   95  A    between atoms: _218  and  _219
REMARK   96  A    between atoms: _222  and  _224
REMARK   97  A    between atoms: _224  and  _225
REMARK   98  A    between atoms: _224  and  _227
REMARK   99  A    between atoms: _230  and  _232
REMARK  100  A    between atoms: _232  and  _233
REMARK  101  A    between atoms: _232  and  _235
REMARK  102  A    between atoms: _235  and  _236
REMARK  103  A    between atoms: _236  and  _238
REMARK  104  A    between atoms: _238  and  MN_286
REMARK  105  A    between atoms: _239  and  _241
REMARK  106  A    between atoms: _241  and  _242
REMARK  107  A    between atoms: _241  and  _244
REMARK  108  A    between atoms: _244  and  _245
REMARK  109  A    between atoms: _245  and  _246
REMARK  110  A    between atoms: _246  and  _247
REMARK  111  A    between atoms: _247  and  _248
REMARK  112  A    between atoms: _252  and  _254
REMARK  113  A    between atoms: _254  and  _255
REMARK  114  A    between atoms: _254  and  _257
REMARK  115  A    between atoms: _260  and  _262
REMARK  116  A    between atoms: _262  and  _263
REMARK  117  A    between atoms: _262  and  _265
REMARK  118  A    between atoms: _265  and  _266
REMARK  119  A    between atoms: _268  and  _270
REMARK  120  A    between atoms: _270  and  _271
REMARK  121  A    between atoms: _270  and  _273
REMARK  122  A    between atoms: _273  and  _274
REMARK  123  A    between atoms: _274  and  _275
REMARK  124  A    between atoms: _275  and  _276
REMARK                            x       y       z     vdW  Elec       q    Type
REMARK                         _______ _______ _______ _____ _____    ______ ____
ROOT
ATOM      1  O   HOH     1      -0.063   5.716  25.800  0.00  0.00    +0.000 OA
ENDROOT
TORSDOF 0
REMARK  Name = ../refined-set-2016/3qin/3qin_pocket.pdb
REMARK  124 active torsions:
REMARK  status: ('A' for Active; 'I' for Inactive)
REMARK    1  A    between atoms: _1  and  _3
REMARK    2  A    between atoms: _3  and  _4
REMARK    3  A    between atoms: _3  and  _6
REMARK    4  A    between atoms: _9  and  _11
REMARK    5  A    between atoms: _11  and  _12
REMARK    6  A    between atoms: _11  and  _14
REMARK    7  A    between atoms: _14  and  _15
REMARK    8  A    between atoms: _15  and  _16
REMARK    9  A    between atoms: _15  and  _17
REMARK   10  A    between atoms: _16  and  MN_285
REMARK   11  A    between atoms: _17  and  MN_286
REMARK   12  A    between atoms: _18  and  _20
REMARK   13  A    between atoms: _20  and  _21
REMARK   14  A    between atoms: _23  and  _25
REMARK   15  A    between atoms: _25  and  _26
REMARK   16  A    between atoms: _29  and  _31
REMARK   17  A    between atoms: _31  and  _32
REMARK   18  A    between atoms: _35  and  _37
REMARK   19  A    between atoms: _37  and  _38
REMARK   20  A    between atoms: _37  and  _40
REMARK   21  A    between atoms: _40  and  _41
REMARK   22  A    between atoms: _46  and  _48
REMARK   23  A    between atoms: _48  and  _49
REMARK   24  A    between atoms: _48  and  _51
REMARK   25  A    between atoms: _51  and  _52
REMARK   26  A    between atoms: _52  and  _53
REMARK   27  A    between atoms: _58  and  _60
REMARK   28  A    between atoms: _60  and  _61
REMARK   29  A    between atoms: _60  and  _63
REMARK   30  A    between atoms: _63  and  _64
REMARK   31  A    between atoms: _67  and  _69
REMARK   32  A    between atoms: _69  and  _70
REMARK   33  A    between atoms: _69  and  _72
REMARK   34  A    between atoms: _72  and  _73
REMARK   35  A    between atoms: _73  and  _74
REMARK   36  A    between atoms: _74  and  _75
REMARK   37  A    between atoms: _75  and  MN_285
REMARK   38  A    between atoms: _77  and  _79
REMARK   39  A    between atoms: _79  and  _80
REMARK   40  A    between atoms: _79  and  _82
REMARK   41  A    between atoms: _82  and  _83
REMARK   42  A    between atoms: _86  and  _88
REMARK   43  A    between atoms: _88  and  _89
REMARK   44  A    between atoms: _88  and  _91
REMARK   45  A    between atoms: _91  and  _92
REMARK   46  A    between atoms: _92  and  _94
REMARK   47  A    between atoms: _94  and  MN_285
REMARK   48  A    between atoms: _95  and  _97
REMARK   49  A    between atoms: _97  and  _98
REMARK   50  A    between atoms: _97  and  _100
REMARK   51  A    between atoms: _100  and  _101
REMARK   52  A    between atoms: _103  and  _105
REMARK   53  A    between atoms: _105  and  _106
REMARK   54  A    between atoms: _105  and  _108
REMARK   55  A    between atoms: _108  and  _109
REMARK   56  A    between atoms: _109  and  _110
REMARK   57  A    between atoms: _115  and  _117
REMARK   58  A    between atoms: _117  and  _118
REMARK   59  A    between atoms: _117  and  _120
REMARK   60  A    between atoms: _120  and  _121
REMARK   61  A    between atoms: _126  and  _127
REMARK   62  A    between atoms: _129  and  _131
REMARK   63  A    between atoms: _131  and  _132
REMARK   64  A    between atoms: _135  and  _137
REMARK   65  A    between atoms: _137  and  _138
REMARK   66  A    between atoms: _137  and  _140
REMARK   67  A    between atoms: _140  and  _141
REMARK   68  A    between atoms: _151  and  _153
REMARK   69  A    between atoms: _153  and  _154
REMARK   70  A    between atoms: _153  and  _156
REMARK   71  A    between atoms: _160  and  _161
REMARK   72  A    between atoms: _166  and  _168
REMARK   73  A    between atoms: _168  and  _169
REMARK   74  A    between atoms: _172  and  _174
REMARK   75  A    between atoms: _174  and  _175
REMARK   76  A    between atoms: _174  and  _177
REMARK   77  A    between atoms: _177  and  _178
REMARK   78  A    between atoms: _183  and  _185
REMARK   79  A    between atoms: _185  and  _186
REMARK   80  A    between atoms: _185  and  _188
REMARK   81  A    between atoms: _188  and  _189
REMARK   82  A    between atoms: _189  and  _190
REMARK   83  A    between atoms: _190  and  _191
REMARK   84  A    between atoms: _191  and  _192
REMARK   85  A    between atoms: _196  and  _198
REMARK   86  A    between atoms: _198  and  _199
REMARK   87  A    between atoms: _201  and  _203
REMARK   88  A    between atoms: _203  and  _204
REMARK   89  A    between atoms: _203  and  _206
REMARK   90  A    between atoms: _206  and  _207
REMARK   91  A    between atoms: _212  and  _214
REMARK   92  A    between atoms: _214  and  _215
REMARK   93  A    between atoms: _214  and  _217
REMARK   94  A    between atoms: _217  and  _218
REMARK   95  A    between atoms: _218  and  _219
REMARK   96  A    between atoms: _222  and  _224
REMARK   97  A    between atoms: _224  and  _225
REMARK   98  A    between atoms: _224  and  _227
REMARK   99  A    between atoms: _230  and  _232
REMARK  100  A    between atoms: _232  and  _233
REMARK  101  A    between atoms: _232  and  _235
REMARK  102  A    between atoms: _235  and  _236
REMARK  103  A    between atoms: _236  and  _238
REMARK  104  A    between atoms: _238  and  MN_286
REMARK  105  A    between atoms: _239  and  _241
REMARK  106  A    between atoms: _241  and  _242
REMARK  107  A    between atoms: _241  and  _244
REMARK  108  A    between atoms: _244  and  _245
REMARK  109  A    between atoms: _245  and  _246
REMARK  110  A    between atoms: _246  and  _247
REMARK  111  A    between atoms: _247  and  _248
REMARK  112  A    between atoms: _252  and  _254
REMARK  113  A    between atoms: _254  and  _255
REMARK  114  A    between atoms: _254  and  _257
REMARK  115  A    between atoms: _260  and  _262
REMARK  116  A    between atoms: _262  and  _263
REMARK  117  A    between atoms: _262  and  _265
REMARK  118  A    between atoms: _265  and  _266
REMARK  119  A    between atoms: _268  and  _270
REMARK  120  A    between atoms: _270  and  _271
REMARK  121  A    between atoms: _270  and  _273
REMARK  122  A    between atoms: _273  and  _274
REMARK  123  A    between atoms: _274  and  _275
REMARK  124  A    between atoms: _275  and  _276
REMARK                            x       y       z     vdW  Elec       q    Type
REMARK                         _______ _______ _______ _____ _____    ______ ____
ROOT
ATOM      1  O   HOH     1       0.820  -1.144  24.356  0.00  0.00    +0.000 OA
ENDROOT
TORSDOF 0
REMARK  Name = ../refined-set-2016/3qin/3qin_pocket.pdb
REMARK  124 active torsions:
REMARK  status: ('A' for Active; 'I' for Inactive)
REMARK    1  A    between atoms: _1  and  _3
REMARK    2  A    between atoms: _3  and  _4
REMARK    3  A    between atoms: _3  and  _6
REMARK    4  A    between atoms: _9  and  _11
REMARK    5  A    between atoms: _11  and  _12
REMARK    6  A    between atoms: _11  and  _14
REMARK    7  A    between atoms: _14  and  _15
REMARK    8  A    between atoms: _15  and  _16
REMARK    9  A    between atoms: _15  and  _17
REMARK   10  A    between atoms: _16  and  MN_285
REMARK   11  A    between atoms: _17  and  MN_286
REMARK   12  A    between atoms: _18  and  _20
REMARK   13  A    between atoms: _20  and  _21
REMARK   14  A    between atoms: _23  and  _25
REMARK   15  A    between atoms: _25  and  _26
REMARK   16  A    between atoms: _29  and  _31
REMARK   17  A    between atoms: _31  and  _32
REMARK   18  A    between atoms: _35  and  _37
REMARK   19  A    between atoms: _37  and  _38
REMARK   20  A    between atoms: _37  and  _40
REMARK   21  A    between atoms: _40  and  _41
REMARK   22  A    between atoms: _46  and  _48
REMARK   23  A    between atoms: _48  and  _49
REMARK   24  A    between atoms: _48  and  _51
REMARK   25  A    between atoms: _51  and  _52
REMARK   26  A    between atoms: _52  and  _53
REMARK   27  A    between atoms: _58  and  _60
REMARK   28  A    between atoms: _60  and  _61
REMARK   29  A    between atoms: _60  and  _63
REMARK   30  A    between atoms: _63  and  _64
REMARK   31  A    between atoms: _67  and  _69
REMARK   32  A    between atoms: _69  and  _70
REMARK   33  A    between atoms: _69  and  _72
REMARK   34  A    between atoms: _72  and  _73
REMARK   35  A    between atoms: _73  and  _74
REMARK   36  A    between atoms: _74  and  _75
REMARK   37  A    between atoms: _75  and  MN_285
REMARK   38  A    between atoms: _77  and  _79
REMARK   39  A    between atoms: _79  and  _80
REMARK   40  A    between atoms: _79  and  _82
REMARK   41  A    between atoms: _82  and  _83
REMARK   42  A    between atoms: _86  and  _88
REMARK   43  A    between atoms: _88  and  _89
REMARK   44  A    between atoms: _88  and  _91
REMARK   45  A    between atoms: _91  and  _92
REMARK   46  A    between atoms: _92  and  _94
REMARK   47  A    between atoms: _94  and  MN_285
REMARK   48  A    between atoms: _95  and  _97
REMARK   49  A    between atoms: _97  and  _98
REMARK   50  A    between atoms: _97  and  _100
REMARK   51  A    between atoms: _100  and  _101
REMARK   52  A    between atoms: _103  and  _105
REMARK   53  A    between atoms: _105  and  _106
REMARK   54  A    between atoms: _105  and  _108
REMARK   55  A    between atoms: _108  and  _109
REMARK   56  A    between atoms: _109  and  _110
REMARK   57  A    between atoms: _115  and  _117
REMARK   58  A    between atoms: _117  and  _118
REMARK   59  A    between atoms: _117  and  _120
REMARK   60  A    between atoms: _120  and  _121
REMARK   61  A    between atoms: _126  and  _127
REMARK   62  A    between atoms: _129  and  _131
REMARK   63  A    between atoms: _131  and  _132
REMARK   64  A    between atoms: _135  and  _137
REMARK   65  A    between atoms: _137  and  _138
REMARK   66  A    between atoms: _137  and  _140
REMARK   67  A    between atoms: _140  and  _141
REMARK   68  A    between atoms: _151  and  _153
REMARK   69  A    between atoms: _153  and  _154
REMARK   70  A    between atoms: _153  and  _156
REMARK   71  A    between atoms: _160  and  _161
REMARK   72  A    between atoms: _166  and  _168
REMARK   73  A    between atoms: _168  and  _169
REMARK   74  A    between atoms: _172  and  _174
REMARK   75  A    between atoms: _174  and  _175
REMARK   76  A    between atoms: _174  and  _177
REMARK   77  A    between atoms: _177  and  _178
REMARK   78  A    between atoms: _183  and  _185
REMARK   79  A    between atoms: _185  and  _186
REMARK   80  A    between atoms: _185  and  _188
REMARK   81  A    between atoms: _188  and  _189
REMARK   82  A    between atoms: _189  and  _190
REMARK   83  A    between atoms: _190  and  _191
REMARK   84  A    between atoms: _191  and  _192
REMARK   85  A    between atoms: _196  and  _198
REMARK   86  A    between atoms: _198  and  _199
REMARK   87  A    between atoms: _201  and  _203
REMARK   88  A    between atoms: _203  and  _204
REMARK   89  A    between atoms: _203  and  _206
REMARK   90  A    between atoms: _206  and  _207
REMARK   91  A    between atoms: _212  and  _214
REMARK   92  A    between atoms: _214  and  _215
REMARK   93  A    between atoms: _214  and  _217
REMARK   94  A    between atoms: _217  and  _218
REMARK   95  A    between atoms: _218  and  _219
REMARK   96  A    between atoms: _222  and  _224
REMARK   97  A    between atoms: _224  and  _225
REMARK   98  A    between atoms: _224  and  _227
REMARK   99  A    between atoms: _230  and  _232
REMARK  100  A    between atoms: _232  and  _233
REMARK  101  A    between atoms: _232  and  _235
REMARK  102  A    between atoms: _235  and  _236
REMARK  103  A    between atoms: _236  and  _238
REMARK  104  A    between atoms: _238  and  MN_286
REMARK  105  A    between atoms: _239  and  _241
REMARK  106  A    between atoms: _241  and  _242
REMARK  107  A    between atoms: _241  and  _244
REMARK  108  A    between atoms: _244  and  _245
REMARK  109  A    between atoms: _245  and  _246
REMARK  110  A    between atoms: _246  and  _247
REMARK  111  A    between atoms: _247  and  _248
REMARK  112  A    between atoms: _252  and  _254
REMARK  113  A    between atoms: _254  and  _255
REMARK  114  A    between atoms: _254  and  _257
REMARK  115  A    between atoms: _260  and  _262
REMARK  116  A    between atoms: _262  and  _263
REMARK  117  A    between atoms: _262  and  _265
REMARK  118  A    between atoms: _265  and  _266
REMARK  119  A    between atoms: _268  and  _270
REMARK  120  A    between atoms: _270  and  _271
REMARK  121  A    between atoms: _270  and  _273
REMARK  122  A    between atoms: _273  and  _274
REMARK  123  A    between atoms: _274  and  _275
REMARK  124  A    between atoms: _275  and  _276
REMARK                            x       y       z     vdW  Elec       q    Type
REMARK                         _______ _______ _______ _____ _____    ______ ____
ROOT
ATOM      1  O   HOH     1      -1.029   7.398  29.740  0.00  0.00    +0.000 OA
ENDROOT
TORSDOF 0
REMARK  Name = ../refined-set-2016/3qin/3qin_pocket.pdb
REMARK  124 active torsions:
REMARK  status: ('A' for Active; 'I' for Inactive)
REMARK    1  A    between atoms: _1  and  _3
REMARK    2  A    between atoms: _3  and  _4
REMARK    3  A    between atoms: _3  and  _6
REMARK    4  A    between atoms: _9  and  _11
REMARK    5  A    between atoms: _11  and  _12
REMARK    6  A    between atoms: _11  and  _14
REMARK    7  A    between atoms: _14  and  _15
REMARK    8  A    between atoms: _15  and  _16
REMARK    9  A    between atoms: _15  and  _17
REMARK   10  A    between atoms: _16  and  MN_285
REMARK   11  A    between atoms: _17  and  MN_286
REMARK   12  A    between atoms: _18  and  _20
REMARK   13  A    between atoms: _20  and  _21
REMARK   14  A    between atoms: _23  and  _25
REMARK   15  A    between atoms: _25  and  _26
REMARK   16  A    between atoms: _29  and  _31
REMARK   17  A    between atoms: _31  and  _32
REMARK   18  A    between atoms: _35  and  _37
REMARK   19  A    between atoms: _37  and  _38
REMARK   20  A    between atoms: _37  and  _40
REMARK   21  A    between atoms: _40  and  _41
REMARK   22  A    between atoms: _46  and  _48
REMARK   23  A    between atoms: _48  and  _49
REMARK   24  A    between atoms: _48  and  _51
REMARK   25  A    between atoms: _51  and  _52
REMARK   26  A    between atoms: _52  and  _53
REMARK   27  A    between atoms: _58  and  _60
REMARK   28  A    between atoms: _60  and  _61
REMARK   29  A    between atoms: _60  and  _63
REMARK   30  A    between atoms: _63  and  _64
REMARK   31  A    between atoms: _67  and  _69
REMARK   32  A    between atoms: _69  and  _70
REMARK   33  A    between atoms: _69  and  _72
REMARK   34  A    between atoms: _72  and  _73
REMARK   35  A    between atoms: _73  and  _74
REMARK   36  A    between atoms: _74  and  _75
REMARK   37  A    between atoms: _75  and  MN_285
REMARK   38  A    between atoms: _77  and  _79
REMARK   39  A    between atoms: _79  and  _80
REMARK   40  A    between atoms: _79  and  _82
REMARK   41  A    between atoms: _82  and  _83
REMARK   42  A    between atoms: _86  and  _88
REMARK   43  A    between atoms: _88  and  _89
REMARK   44  A    between atoms: _88  and  _91
REMARK   45  A    between atoms: _91  and  _92
REMARK   46  A    between atoms: _92  and  _94
REMARK   47  A    between atoms: _94  and  MN_285
REMARK   48  A    between atoms: _95  and  _97
REMARK   49  A    between atoms: _97  and  _98
REMARK   50  A    between atoms: _97  and  _100
REMARK   51  A    between atoms: _100  and  _101
REMARK   52  A    between atoms: _103  and  _105
REMARK   53  A    between atoms: _105  and  _106
REMARK   54  A    between atoms: _105  and  _108
REMARK   55  A    between atoms: _108  and  _109
REMARK   56  A    between atoms: _109  and  _110
REMARK   57  A    between atoms: _115  and  _117
REMARK   58  A    between atoms: _117  and  _118
REMARK   59  A    between atoms: _117  and  _120
REMARK   60  A    between atoms: _120  and  _121
REMARK   61  A    between atoms: _126  and  _127
REMARK   62  A    between atoms: _129  and  _131
REMARK   63  A    between atoms: _131  and  _132
REMARK   64  A    between atoms: _135  and  _137
REMARK   65  A    between atoms: _137  and  _138
REMARK   66  A    between atoms: _137  and  _140
REMARK   67  A    between atoms: _140  and  _141
REMARK   68  A    between atoms: _151  and  _153
REMARK   69  A    between atoms: _153  and  _154
REMARK   70  A    between atoms: _153  and  _156
REMARK   71  A    between atoms: _160  and  _161
REMARK   72  A    between atoms: _166  and  _168
REMARK   73  A    between atoms: _168  and  _169
REMARK   74  A    between atoms: _172  and  _174
REMARK   75  A    between atoms: _174  and  _175
REMARK   76  A    between atoms: _174  and  _177
REMARK   77  A    between atoms: _177  and  _178
REMARK   78  A    between atoms: _183  and  _185
REMARK   79  A    between atoms: _185  and  _186
REMARK   80  A    between atoms: _185  and  _188
REMARK   81  A    between atoms: _188  and  _189
REMARK   82  A    between atoms: _189  and  _190
REMARK   83  A    between atoms: _190  and  _191
REMARK   84  A    between atoms: _191  and  _192
REMARK   85  A    between atoms: _196  and  _198
REMARK   86  A    between atoms: _198  and  _199
REMARK   87  A    between atoms: _201  and  _203
REMARK   88  A    between atoms: _203  and  _204
REMARK   89  A    between atoms: _203  and  _206
REMARK   90  A    between atoms: _206  and  _207
REMARK   91  A    between atoms: _212  and  _214
REMARK   92  A    between atoms: _214  and  _215
REMARK   93  A    between atoms: _214  and  _217
REMARK   94  A    between atoms: _217  and  _218
REMARK   95  A    between atoms: _218  and  _219
REMARK   96  A    between atoms: _222  and  _224
REMARK   97  A    between atoms: _224  and  _225
REMARK   98  A    between atoms: _224  and  _227
REMARK   99  A    between atoms: _230  and  _232
REMARK  100  A    between atoms: _232  and  _233
REMARK  101  A    between atoms: _232  and  _235
REMARK  102  A    between atoms: _235  and  _236
REMARK  103  A    between atoms: _236  and  _238
REMARK  104  A    between atoms: _238  and  MN_286
REMARK  105  A    between atoms: _239  and  _241
REMARK  106  A    between atoms: _241  and  _242
REMARK  107  A    between atoms: _241  and  _244
REMARK  108  A    between atoms: _244  and  _245
REMARK  109  A    between atoms: _245  and  _246
REMARK  110  A    between atoms: _246  and  _247
REMARK  111  A    between atoms: _247  and  _248
REMARK  112  A    between atoms: _252  and  _254
REMARK  113  A    between atoms: _254  and  _255
REMARK  114  A    between atoms: _254  and  _257
REMARK  115  A    between atoms: _260  and  _262
REMARK  116  A    between atoms: _262  and  _263
REMARK  117  A    between atoms: _262  and  _265
REMARK  118  A    between atoms: _265  and  _266
REMARK  119  A    between atoms: _268  and  _270
REMARK  120  A    between atoms: _270  and  _271
REMARK  121  A    between atoms: _270  and  _273
REMARK  122  A    between atoms: _273  and  _274
REMARK  123  A    between atoms: _274  and  _275
REMARK  124  A    between atoms: _275  and  _276
REMARK                            x       y       z     vdW  Elec       q    Type
REMARK                         _______ _______ _______ _____ _____    ______ ____
ROOT
ATOM      1  O   HOH     1       0.419   6.399  32.923  0.00  0.00    +0.000 OA
ENDROOT
TORSDOF 0
REMARK  Name = ../refined-set-2016/3qin/3qin_pocket.pdb
REMARK  124 active torsions:
REMARK  status: ('A' for Active; 'I' for Inactive)
REMARK    1  A    between atoms: _1  and  _3
REMARK    2  A    between atoms: _3  and  _4
REMARK    3  A    between atoms: _3  and  _6
REMARK    4  A    between atoms: _9  and  _11
REMARK    5  A    between atoms: _11  and  _12
REMARK    6  A    between atoms: _11  and  _14
REMARK    7  A    between atoms: _14  and  _15
REMARK    8  A    between atoms: _15  and  _16
REMARK    9  A    between atoms: _15  and  _17
REMARK   10  A    between atoms: _16  and  MN_285
REMARK   11  A    between atoms: _17  and  MN_286
REMARK   12  A    between atoms: _18  and  _20
REMARK   13  A    between atoms: _20  and  _21
REMARK   14  A    between atoms: _23  and  _25
REMARK   15  A    between atoms: _25  and  _26
REMARK   16  A    between atoms: _29  and  _31
REMARK   17  A    between atoms: _31  and  _32
REMARK   18  A    between atoms: _35  and  _37
REMARK   19  A    between atoms: _37  and  _38
REMARK   20  A    between atoms: _37  and  _40
REMARK   21  A    between atoms: _40  and  _41
REMARK   22  A    between atoms: _46  and  _48
REMARK   23  A    between atoms: _48  and  _49
REMARK   24  A    between atoms: _48  and  _51
REMARK   25  A    between atoms: _51  and  _52
REMARK   26  A    between atoms: _52  and  _53
REMARK   27  A    between atoms: _58  and  _60
REMARK   28  A    between atoms: _60  and  _61
REMARK   29  A    between atoms: _60  and  _63
REMARK   30  A    between atoms: _63  and  _64
REMARK   31  A    between atoms: _67  and  _69
REMARK   32  A    between atoms: _69  and  _70
REMARK   33  A    between atoms: _69  and  _72
REMARK   34  A    between atoms: _72  and  _73
REMARK   35  A    between atoms: _73  and  _74
REMARK   36  A    between atoms: _74  and  _75
REMARK   37  A    between atoms: _75  and  MN_285
REMARK   38  A    between atoms: _77  and  _79
REMARK   39  A    between atoms: _79  and  _80
REMARK   40  A    between atoms: _79  and  _82
REMARK   41  A    between atoms: _82  and  _83
REMARK   42  A    between atoms: _86  and  _88
REMARK   43  A    between atoms: _88  and  _89
REMARK   44  A    between atoms: _88  and  _91
REMARK   45  A    between atoms: _91  and  _92
REMARK   46  A    between atoms: _92  and  _94
REMARK   47  A    between atoms: _94  and  MN_285
REMARK   48  A    between atoms: _95  and  _97
REMARK   49  A    between atoms: _97  and  _98
REMARK   50  A    between atoms: _97  and  _100
REMARK   51  A    between atoms: _100  and  _101
REMARK   52  A    between atoms: _103  and  _105
REMARK   53  A    between atoms: _105  and  _106
REMARK   54  A    between atoms: _105  and  _108
REMARK   55  A    between atoms: _108  and  _109
REMARK   56  A    between atoms: _109  and  _110
REMARK   57  A    between atoms: _115  and  _117
REMARK   58  A    between atoms: _117  and  _118
REMARK   59  A    between atoms: _117  and  _120
REMARK   60  A    between atoms: _120  and  _121
REMARK   61  A    between atoms: _126  and  _127
REMARK   62  A    between atoms: _129  and  _131
REMARK   63  A    between atoms: _131  and  _132
REMARK   64  A    between atoms: _135  and  _137
REMARK   65  A    between atoms: _137  and  _138
REMARK   66  A    between atoms: _137  and  _140
REMARK   67  A    between atoms: _140  and  _141
REMARK   68  A    between atoms: _151  and  _153
REMARK   69  A    between atoms: _153  and  _154
REMARK   70  A    between atoms: _153  and  _156
REMARK   71  A    between atoms: _160  and  _161
REMARK   72  A    between atoms: _166  and  _168
REMARK   73  A    between atoms: _168  and  _169
REMARK   74  A    between atoms: _172  and  _174
REMARK   75  A    between atoms: _174  and  _175
REMARK   76  A    between atoms: _174  and  _177
REMARK   77  A    between atoms: _177  and  _178
REMARK   78  A    between atoms: _183  and  _185
REMARK   79  A    between atoms: _185  and  _186
REMARK   80  A    between atoms: _185  and  _188
REMARK   81  A    between atoms: _188  and  _189
REMARK   82  A    between atoms: _189  and  _190
REMARK   83  A    between atoms: _190  and  _191
REMARK   84  A    between atoms: _191  and  _192
REMARK   85  A    between atoms: _196  and  _198
REMARK   86  A    between atoms: _198  and  _199
REMARK   87  A    between atoms: _201  and  _203
REMARK   88  A    between atoms: _203  and  _204
REMARK   89  A    between atoms: _203  and  _206
REMARK   90  A    between atoms: _206  and  _207
REMARK   91  A    between atoms: _212  and  _214
REMARK   92  A    between atoms: _214  and  _215
REMARK   93  A    between atoms: _214  and  _217
REMARK   94  A    between atoms: _217  and  _218
REMARK   95  A    between atoms: _218  and  _219
REMARK   96  A    between atoms: _222  and  _224
REMARK   97  A    between atoms: _224  and  _225
REMARK   98  A    between atoms: _224  and  _227
REMARK   99  A    between atoms: _230  and  _232
REMARK  100  A    between atoms: _232  and  _233
REMARK  101  A    between atoms: _232  and  _235
REMARK  102  A    between atoms: _235  and  _236
REMARK  103  A    between atoms: _236  and  _238
REMARK  104  A    between atoms: _238  and  MN_286
REMARK  105  A    between atoms: _239  and  _241
REMARK  106  A    between atoms: _241  and  _242
REMARK  107  A    between atoms: _241  and  _244
REMARK  108  A    between atoms: _244  and  _245
REMARK  109  A    between atoms: _245  and  _246
REMARK  110  A    between atoms: _246  and  _247
REMARK  111  A    between atoms: _247  and  _248
REMARK  112  A    between atoms: _252  and  _254
REMARK  113  A    between atoms: _254  and  _255
REMARK  114  A    between atoms: _254  and  _257
REMARK  115  A    between atoms: _260  and  _262
REMARK  116  A    between atoms: _262  and  _263
REMARK  117  A    between atoms: _262  and  _265
REMARK  118  A    between atoms: _265  and  _266
REMARK  119  A    between atoms: _268  and  _270
REMARK  120  A    between atoms: _270  and  _271
REMARK  121  A    between atoms: _270  and  _273
REMARK  122  A    between atoms: _273  and  _274
REMARK  123  A    between atoms: _274  and  _275
REMARK  124  A    between atoms: _275  and  _276
REMARK                            x       y       z     vdW  Elec       q    Type
REMARK                         _______ _______ _______ _____ _____    ______ ____
ROOT
ATOM      1  O   HOH     1       0.116   3.114  24.740  0.00  0.00    +0.000 OA
ENDROOT
TORSDOF 0
REMARK  Name = ../refined-set-2016/3qin/3qin_pocket.pdb
REMARK  124 active torsions:
REMARK  status: ('A' for Active; 'I' for Inactive)
REMARK    1  A    between atoms: _1  and  _3
REMARK    2  A    between atoms: _3  and  _4
REMARK    3  A    between atoms: _3  and  _6
REMARK    4  A    between atoms: _9  and  _11
REMARK    5  A    between atoms: _11  and  _12
REMARK    6  A    between atoms: _11  and  _14
REMARK    7  A    between atoms: _14  and  _15
REMARK    8  A    between atoms: _15  and  _16
REMARK    9  A    between atoms: _15  and  _17
REMARK   10  A    between atoms: _16  and  MN_285
REMARK   11  A    between atoms: _17  and  MN_286
REMARK   12  A    between atoms: _18  and  _20
REMARK   13  A    between atoms: _20  and  _21
REMARK   14  A    between atoms: _23  and  _25
REMARK   15  A    between atoms: _25  and  _26
REMARK   16  A    between atoms: _29  and  _31
REMARK   17  A    between atoms: _31  and  _32
REMARK   18  A    between atoms: _35  and  _37
REMARK   19  A    between atoms: _37  and  _38
REMARK   20  A    between atoms: _37  and  _40
REMARK   21  A    between atoms: _40  and  _41
REMARK   22  A    between atoms: _46  and  _48
REMARK   23  A    between atoms: _48  and  _49
REMARK   24  A    between atoms: _48  and  _51
REMARK   25  A    between atoms: _51  and  _52
REMARK   26  A    between atoms: _52  and  _53
REMARK   27  A    between atoms: _58  and  _60
REMARK   28  A    between atoms: _60  and  _61
REMARK   29  A    between atoms: _60  and  _63
REMARK   30  A    between atoms: _63  and  _64
REMARK   31  A    between atoms: _67  and  _69
REMARK   32  A    between atoms: _69  and  _70
REMARK   33  A    between atoms: _69  and  _72
REMARK   34  A    between atoms: _72  and  _73
REMARK   35  A    between atoms: _73  and  _74
REMARK   36  A    between atoms: _74  and  _75
REMARK   37  A    between atoms: _75  and  MN_285
REMARK   38  A    between atoms: _77  and  _79
REMARK   39  A    between atoms: _79  and  _80
REMARK   40  A    between atoms: _79  and  _82
REMARK   41  A    between atoms: _82  and  _83
REMARK   42  A    between atoms: _86  and  _88
REMARK   43  A    between atoms: _88  and  _89
REMARK   44  A    between atoms: _88  and  _91
REMARK   45  A    between atoms: _91  and  _92
REMARK   46  A    between atoms: _92  and  _94
REMARK   47  A    between atoms: _94  and  MN_285
REMARK   48  A    between atoms: _95  and  _97
REMARK   49  A    between atoms: _97  and  _98
REMARK   50  A    between atoms: _97  and  _100
REMARK   51  A    between atoms: _100  and  _101
REMARK   52  A    between atoms: _103  and  _105
REMARK   53  A    between atoms: _105  and  _106
REMARK   54  A    between atoms: _105  and  _108
REMARK   55  A    between atoms: _108  and  _109
REMARK   56  A    between atoms: _109  and  _110
REMARK   57  A    between atoms: _115  and  _117
REMARK   58  A    between atoms: _117  and  _118
REMARK   59  A    between atoms: _117  and  _120
REMARK   60  A    between atoms: _120  and  _121
REMARK   61  A    between atoms: _126  and  _127
REMARK   62  A    between atoms: _129  and  _131
REMARK   63  A    between atoms: _131  and  _132
REMARK   64  A    between atoms: _135  and  _137
REMARK   65  A    between atoms: _137  and  _138
REMARK   66  A    between atoms: _137  and  _140
REMARK   67  A    between atoms: _140  and  _141
REMARK   68  A    between atoms: _151  and  _153
REMARK   69  A    between atoms: _153  and  _154
REMARK   70  A    between atoms: _153  and  _156
REMARK   71  A    between atoms: _160  and  _161
REMARK   72  A    between atoms: _166  and  _168
REMARK   73  A    between atoms: _168  and  _169
REMARK   74  A    between atoms: _172  and  _174
REMARK   75  A    between atoms: _174  and  _175
REMARK   76  A    between atoms: _174  and  _177
REMARK   77  A    between atoms: _177  and  _178
REMARK   78  A    between atoms: _183  and  _185
REMARK   79  A    between atoms: _185  and  _186
REMARK   80  A    between atoms: _185  and  _188
REMARK   81  A    between atoms: _188  and  _189
REMARK   82  A    between atoms: _189  and  _190
REMARK   83  A    between atoms: _190  and  _191
REMARK   84  A    between atoms: _191  and  _192
REMARK   85  A    between atoms: _196  and  _198
REMARK   86  A    between atoms: _198  and  _199
REMARK   87  A    between atoms: _201  and  _203
REMARK   88  A    between atoms: _203  and  _204
REMARK   89  A    between atoms: _203  and  _206
REMARK   90  A    between atoms: _206  and  _207
REMARK   91  A    between atoms: _212  and  _214
REMARK   92  A    between atoms: _214  and  _215
REMARK   93  A    between atoms: _214  and  _217
REMARK   94  A    between atoms: _217  and  _218
REMARK   95  A    between atoms: _218  and  _219
REMARK   96  A    between atoms: _222  and  _224
REMARK   97  A    between atoms: _224  and  _225
REMARK   98  A    between atoms: _224  and  _227
REMARK   99  A    between atoms: _230  and  _232
REMARK  100  A    between atoms: _232  and  _233
REMARK  101  A    between atoms: _232  and  _235
REMARK  102  A    between atoms: _235  and  _236
REMARK  103  A    between atoms: _236  and  _238
REMARK  104  A    between atoms: _238  and  MN_286
REMARK  105  A    between atoms: _239  and  _241
REMARK  106  A    between atoms: _241  and  _242
REMARK  107  A    between atoms: _241  and  _244
REMARK  108  A    between atoms: _244  and  _245
REMARK  109  A    between atoms: _245  and  _246
REMARK  110  A    between atoms: _246  and  _247
REMARK  111  A    between atoms: _247  and  _248
REMARK  112  A    between atoms: _252  and  _254
REMARK  113  A    between atoms: _254  and  _255
REMARK  114  A    between atoms: _254  and  _257
REMARK  115  A    between atoms: _260  and  _262
REMARK  116  A    between atoms: _262  and  _263
REMARK  117  A    between atoms: _262  and  _265
REMARK  118  A    between atoms: _265  and  _266
REMARK  119  A    between atoms: _268  and  _270
REMARK  120  A    between atoms: _270  and  _271
REMARK  121  A    between atoms: _270  and  _273
REMARK  122  A    between atoms: _273  and  _274
REMARK  123  A    between atoms: _274  and  _275
REMARK  124  A    between atoms: _275  and  _276
REMARK                            x       y       z     vdW  Elec       q    Type
REMARK                         _______ _______ _______ _____ _____    ______ ____
ROOT
ATOM      1  O   HOH     1      -1.497   0.474  25.391  0.00  0.00    +0.000 OA
ENDROOT
TORSDOF 0
REMARK  Name = ../refined-set-2016/3qin/3qin_pocket.pdb
REMARK  124 active torsions:
REMARK  status: ('A' for Active; 'I' for Inactive)
REMARK    1  A    between atoms: _1  and  _3
REMARK    2  A    between atoms: _3  and  _4
REMARK    3  A    between atoms: _3  and  _6
REMARK    4  A    between atoms: _9  and  _11
REMARK    5  A    between atoms: _11  and  _12
REMARK    6  A    between atoms: _11  and  _14
REMARK    7  A    between atoms: _14  and  _15
REMARK    8  A    between atoms: _15  and  _16
REMARK    9  A    between atoms: _15  and  _17
REMARK   10  A    between atoms: _16  and  MN_285
REMARK   11  A    between atoms: _17  and  MN_286
REMARK   12  A    between atoms: _18  and  _20
REMARK   13  A    between atoms: _20  and  _21
REMARK   14  A    between atoms: _23  and  _25
REMARK   15  A    between atoms: _25  and  _26
REMARK   16  A    between atoms: _29  and  _31
REMARK   17  A    between atoms: _31  and  _32
REMARK   18  A    between atoms: _35  and  _37
REMARK   19  A    between atoms: _37  and  _38
REMARK   20  A    between atoms: _37  and  _40
REMARK   21  A    between atoms: _40  and  _41
REMARK   22  A    between atoms: _46  and  _48
REMARK   23  A    between atoms: _48  and  _49
REMARK   24  A    between atoms: _48  and  _51
REMARK   25  A    between atoms: _51  and  _52
REMARK   26  A    between atoms: _52  and  _53
REMARK   27  A    between atoms: _58  and  _60
REMARK   28  A    between atoms: _60  and  _61
REMARK   29  A    between atoms: _60  and  _63
REMARK   30  A    between atoms: _63  and  _64
REMARK   31  A    between atoms: _67  and  _69
REMARK   32  A    between atoms: _69  and  _70
REMARK   33  A    between atoms: _69  and  _72
REMARK   34  A    between atoms: _72  and  _73
REMARK   35  A    between atoms: _73  and  _74
REMARK   36  A    between atoms: _74  and  _75
REMARK   37  A    between atoms: _75  and  MN_285
REMARK   38  A    between atoms: _77  and  _79
REMARK   39  A    between atoms: _79  and  _80
REMARK   40  A    between atoms: _79  and  _82
REMARK   41  A    between atoms: _82  and  _83
REMARK   42  A    between atoms: _86  and  _88
REMARK   43  A    between atoms: _88  and  _89
REMARK   44  A    between atoms: _88  and  _91
REMARK   45  A    between atoms: _91  and  _92
REMARK   46  A    between atoms: _92  and  _94
REMARK   47  A    between atoms: _94  and  MN_285
REMARK   48  A    between atoms: _95  and  _97
REMARK   49  A    between atoms: _97  and  _98
REMARK   50  A    between atoms: _97  and  _100
REMARK   51  A    between atoms: _100  and  _101
REMARK   52  A    between atoms: _103  and  _105
REMARK   53  A    between atoms: _105  and  _106
REMARK   54  A    between atoms: _105  and  _108
REMARK   55  A    between atoms: _108  and  _109
REMARK   56  A    between atoms: _109  and  _110
REMARK   57  A    between atoms: _115  and  _117
REMARK   58  A    between atoms: _117  and  _118
REMARK   59  A    between atoms: _117  and  _120
REMARK   60  A    between atoms: _120  and  _121
REMARK   61  A    between atoms: _126  and  _127
REMARK   62  A    between atoms: _129  and  _131
REMARK   63  A    between atoms: _131  and  _132
REMARK   64  A    between atoms: _135  and  _137
REMARK   65  A    between atoms: _137  and  _138
REMARK   66  A    between atoms: _137  and  _140
REMARK   67  A    between atoms: _140  and  _141
REMARK   68  A    between atoms: _151  and  _153
REMARK   69  A    between atoms: _153  and  _154
REMARK   70  A    between atoms: _153  and  _156
REMARK   71  A    between atoms: _160  and  _161
REMARK   72  A    between atoms: _166  and  _168
REMARK   73  A    between atoms: _168  and  _169
REMARK   74  A    between atoms: _172  and  _174
REMARK   75  A    between atoms: _174  and  _175
REMARK   76  A    between atoms: _174  and  _177
REMARK   77  A    between atoms: _177  and  _178
REMARK   78  A    between atoms: _183  and  _185
REMARK   79  A    between atoms: _185  and  _186
REMARK   80  A    between atoms: _185  and  _188
REMARK   81  A    between atoms: _188  and  _189
REMARK   82  A    between atoms: _189  and  _190
REMARK   83  A    between atoms: _190  and  _191
REMARK   84  A    between atoms: _191  and  _192
REMARK   85  A    between atoms: _196  and  _198
REMARK   86  A    between atoms: _198  and  _199
REMARK   87  A    between atoms: _201  and  _203
REMARK   88  A    between atoms: _203  and  _204
REMARK   89  A    between atoms: _203  and  _206
REMARK   90  A    between atoms: _206  and  _207
REMARK   91  A    between atoms: _212  and  _214
REMARK   92  A    between atoms: _214  and  _215
REMARK   93  A    between atoms: _214  and  _217
REMARK   94  A    between atoms: _217  and  _218
REMARK   95  A    between atoms: _218  and  _219
REMARK   96  A    between atoms: _222  and  _224
REMARK   97  A    between atoms: _224  and  _225
REMARK   98  A    between atoms: _224  and  _227
REMARK   99  A    between atoms: _230  and  _232
REMARK  100  A    between atoms: _232  and  _233
REMARK  101  A    between atoms: _232  and  _235
REMARK  102  A    between atoms: _235  and  _236
REMARK  103  A    between atoms: _236  and  _238
REMARK  104  A    between atoms: _238  and  MN_286
REMARK  105  A    between atoms: _239  and  _241
REMARK  106  A    between atoms: _241  and  _242
REMARK  107  A    between atoms: _241  and  _244
REMARK  108  A    between atoms: _244  and  _245
REMARK  109  A    between atoms: _245  and  _246
REMARK  110  A    between atoms: _246  and  _247
REMARK  111  A    between atoms: _247  and  _248
REMARK  112  A    between atoms: _252  and  _254
REMARK  113  A    between atoms: _254  and  _255
REMARK  114  A    between atoms: _254  and  _257
REMARK  115  A    between atoms: _260  and  _262
REMARK  116  A    between atoms: _262  and  _263
REMARK  117  A    between atoms: _262  and  _265
REMARK  118  A    between atoms: _265  and  _266
REMARK  119  A    between atoms: _268  and  _270
REMARK  120  A    between atoms: _270  and  _271
REMARK  121  A    between atoms: _270  and  _273
REMARK  122  A    between atoms: _273  and  _274
REMARK  123  A    between atoms: _274  and  _275
REMARK  124  A    between atoms: _275  and  _276
REMARK                            x       y       z     vdW  Elec       q    Type
REMARK                         _______ _______ _______ _____ _____    ______ ____
ROOT
ATOM      1  O   HOH     1       3.872   1.052  30.375  0.00  0.00    +0.000 OA
ENDROOT
TORSDOF 0
REMARK  Name = ../refined-set-2016/3qin/3qin_pocket.pdb
REMARK  124 active torsions:
REMARK  status: ('A' for Active; 'I' for Inactive)
REMARK    1  A    between atoms: _1  and  _3
REMARK    2  A    between atoms: _3  and  _4
REMARK    3  A    between atoms: _3  and  _6
REMARK    4  A    between atoms: _9  and  _11
REMARK    5  A    between atoms: _11  and  _12
REMARK    6  A    between atoms: _11  and  _14
REMARK    7  A    between atoms: _14  and  _15
REMARK    8  A    between atoms: _15  and  _16
REMARK    9  A    between atoms: _15  and  _17
REMARK   10  A    between atoms: _16  and  MN_285
REMARK   11  A    between atoms: _17  and  MN_286
REMARK   12  A    between atoms: _18  and  _20
REMARK   13  A    between atoms: _20  and  _21
REMARK   14  A    between atoms: _23  and  _25
REMARK   15  A    between atoms: _25  and  _26
REMARK   16  A    between atoms: _29  and  _31
REMARK   17  A    between atoms: _31  and  _32
REMARK   18  A    between atoms: _35  and  _37
REMARK   19  A    between atoms: _37  and  _38
REMARK   20  A    between atoms: _37  and  _40
REMARK   21  A    between atoms: _40  and  _41
REMARK   22  A    between atoms: _46  and  _48
REMARK   23  A    between atoms: _48  and  _49
REMARK   24  A    between atoms: _48  and  _51
REMARK   25  A    between atoms: _51  and  _52
REMARK   26  A    between atoms: _52  and  _53
REMARK   27  A    between atoms: _58  and  _60
REMARK   28  A    between atoms: _60  and  _61
REMARK   29  A    between atoms: _60  and  _63
REMARK   30  A    between atoms: _63  and  _64
REMARK   31  A    between atoms: _67  and  _69
REMARK   32  A    between atoms: _69  and  _70
REMARK   33  A    between atoms: _69  and  _72
REMARK   34  A    between atoms: _72  and  _73
REMARK   35  A    between atoms: _73  and  _74
REMARK   36  A    between atoms: _74  and  _75
REMARK   37  A    between atoms: _75  and  MN_285
REMARK   38  A    between atoms: _77  and  _79
REMARK   39  A    between atoms: _79  and  _80
REMARK   40  A    between atoms: _79  and  _82
REMARK   41  A    between atoms: _82  and  _83
REMARK   42  A    between atoms: _86  and  _88
REMARK   43  A    between atoms: _88  and  _89
REMARK   44  A    between atoms: _88  and  _91
REMARK   45  A    between atoms: _91  and  _92
REMARK   46  A    between atoms: _92  and  _94
REMARK   47  A    between atoms: _94  and  MN_285
REMARK   48  A    between atoms: _95  and  _97
REMARK   49  A    between atoms: _97  and  _98
REMARK   50  A    between atoms: _97  and  _100
REMARK   51  A    between atoms: _100  and  _101
REMARK   52  A    between atoms: _103  and  _105
REMARK   53  A    between atoms: _105  and  _106
REMARK   54  A    between atoms: _105  and  _108
REMARK   55  A    between atoms: _108  and  _109
REMARK   56  A    between atoms: _109  and  _110
REMARK   57  A    between atoms: _115  and  _117
REMARK   58  A    between atoms: _117  and  _118
REMARK   59  A    between atoms: _117  and  _120
REMARK   60  A    between atoms: _120  and  _121
REMARK   61  A    between atoms: _126  and  _127
REMARK   62  A    between atoms: _129  and  _131
REMARK   63  A    between atoms: _131  and  _132
REMARK   64  A    between atoms: _135  and  _137
REMARK   65  A    between atoms: _137  and  _138
REMARK   66  A    between atoms: _137  and  _140
REMARK   67  A    between atoms: _140  and  _141
REMARK   68  A    between atoms: _151  and  _153
REMARK   69  A    between atoms: _153  and  _154
REMARK   70  A    between atoms: _153  and  _156
REMARK   71  A    between atoms: _160  and  _161
REMARK   72  A    between atoms: _166  and  _168
REMARK   73  A    between atoms: _168  and  _169
REMARK   74  A    between atoms: _172  and  _174
REMARK   75  A    between atoms: _174  and  _175
REMARK   76  A    between atoms: _174  and  _177
REMARK   77  A    between atoms: _177  and  _178
REMARK   78  A    between atoms: _183  and  _185
REMARK   79  A    between atoms: _185  and  _186
REMARK   80  A    between atoms: _185  and  _188
REMARK   81  A    between atoms: _188  and  _189
REMARK   82  A    between atoms: _189  and  _190
REMARK   83  A    between atoms: _190  and  _191
REMARK   84  A    between atoms: _191  and  _192
REMARK   85  A    between atoms: _196  and  _198
REMARK   86  A    between atoms: _198  and  _199
REMARK   87  A    between atoms: _201  and  _203
REMARK   88  A    between atoms: _203  and  _204
REMARK   89  A    between atoms: _203  and  _206
REMARK   90  A    between atoms: _206  and  _207
REMARK   91  A    between atoms: _212  and  _214
REMARK   92  A    between atoms: _214  and  _215
REMARK   93  A    between atoms: _214  and  _217
REMARK   94  A    between atoms: _217  and  _218
REMARK   95  A    between atoms: _218  and  _219
REMARK   96  A    between atoms: _222  and  _224
REMARK   97  A    between atoms: _224  and  _225
REMARK   98  A    between atoms: _224  and  _227
REMARK   99  A    between atoms: _230  and  _232
REMARK  100  A    between atoms: _232  and  _233
REMARK  101  A    between atoms: _232  and  _235
REMARK  102  A    between atoms: _235  and  _236
REMARK  103  A    between atoms: _236  and  _238
REMARK  104  A    between atoms: _238  and  MN_286
REMARK  105  A    between atoms: _239  and  _241
REMARK  106  A    between atoms: _241  and  _242
REMARK  107  A    between atoms: _241  and  _244
REMARK  108  A    between atoms: _244  and  _245
REMARK  109  A    between atoms: _245  and  _246
REMARK  110  A    between atoms: _246  and  _247
REMARK  111  A    between atoms: _247  and  _248
REMARK  112  A    between atoms: _252  and  _254
REMARK  113  A    between atoms: _254  and  _255
REMARK  114  A    between atoms: _254  and  _257
REMARK  115  A    between atoms: _260  and  _262
REMARK  116  A    between atoms: _262  and  _263
REMARK  117  A    between atoms: _262  and  _265
REMARK  118  A    between atoms: _265  and  _266
REMARK  119  A    between atoms: _268  and  _270
REMARK  120  A    between atoms: _270  and  _271
REMARK  121  A    between atoms: _270  and  _273
REMARK  122  A    between atoms: _273  and  _274
REMARK  123  A    between atoms: _274  and  _275
REMARK  124  A    between atoms: _275  and  _276
REMARK                            x       y       z     vdW  Elec       q    Type
REMARK                         _______ _______ _______ _____ _____    ______ ____
ROOT
ATOM      1  O   HOH     1      -0.163   5.112  35.258  0.00  0.00    +0.000 OA
ENDROOT
TORSDOF 0
