REMARK  Name = ../refined-set-2016/1utj/1utj_pocket.pdb
REMARK  106 active torsions:
REMARK  status: ('A' for Active; 'I' for Inactive)
REMARK    1  A    between atoms: _1  and  _3
REMARK    2  A    between atoms: _3  and  _4
REMARK    3  A    between atoms: _3  and  _6
REMARK    4  A    between atoms: _9  and  _11
REMARK    5  A    between atoms: _11  and  _12
REMARK    6  A    between atoms: _11  and  _14
REMARK    7  A    between atoms: _14  and  _15
REMARK    8  A    between atoms: _20  and  _22
REMARK    9  A    between atoms: _22  and  _23
REMARK   10  A    between atoms: _22  and  _25
REMARK   11  A    between atoms: _25  and  _26
REMARK   12  A    between atoms: _31  and  _33
REMARK   13  A    between atoms: _33  and  _34
REMARK   14  A    between atoms: _33  and  _36
REMARK   15  A    between atoms: _36  and  _37
REMARK   16  A    between atoms: _42  and  _43
REMARK   17  A    between atoms: _45  and  _47
REMARK   18  A    between atoms: _47  and  _48
REMARK   19  A    between atoms: _51  and  _53
REMARK   20  A    between atoms: _53  and  _54
REMARK   21  A    between atoms: _53  and  _56
REMARK   22  A    between atoms: _56  and  _57
REMARK   23  A    between atoms: _57  and  _58
REMARK   24  A    between atoms: _58  and  _59
REMARK   25  A    between atoms: _59  and  _60
REMARK   26  A    between atoms: _64  and  _66
REMARK   27  A    between atoms: _66  and  _67
REMARK   28  A    between atoms: _66  and  _69
REMARK   29  A    between atoms: _69  and  _70
REMARK   30  A    between atoms: _73  and  _75
REMARK   31  A    between atoms: _75  and  _76
REMARK   32  A    between atoms: _75  and  _78
REMARK   33  A    between atoms: _78  and  _79
REMARK   34  A    between atoms: _81  and  _83
REMARK   35  A    between atoms: _83  and  _84
REMARK   36  A    between atoms: _83  and  _86
REMARK   37  A    between atoms: _86  and  _87
REMARK   38  A    between atoms: _87  and  _202
REMARK   39  A    between atoms: _88  and  _90
REMARK   40  A    between atoms: _90  and  _91
REMARK   41  A    between atoms: _90  and  _93
REMARK   42  A    between atoms: _93  and  _94
REMARK   43  A    between atoms: _94  and  _95
REMARK   44  A    between atoms: _100  and  _102
REMARK   45  A    between atoms: _102  and  _103
REMARK   46  A    between atoms: _105  and  _107
REMARK   47  A    between atoms: _107  and  _108
REMARK   48  A    between atoms: _107  and  _110
REMARK   49  A    between atoms: _110  and  _111
REMARK   50  A    between atoms: _114  and  _116
REMARK   51  A    between atoms: _116  and  _117
REMARK   52  A    between atoms: _116  and  _119
REMARK   53  A    between atoms: _119  and  _120
REMARK   54  A    between atoms: _122  and  _124
REMARK   55  A    between atoms: _124  and  _125
REMARK   56  A    between atoms: _127  and  _129
REMARK   57  A    between atoms: _129  and  _130
REMARK   58  A    between atoms: _132  and  _134
REMARK   59  A    between atoms: _134  and  _135
REMARK   60  A    between atoms: _134  and  _137
REMARK   61  A    between atoms: _140  and  _142
REMARK   62  A    between atoms: _142  and  _143
REMARK   63  A    between atoms: _142  and  _145
REMARK   64  A    between atoms: _148  and  _150
REMARK   65  A    between atoms: _150  and  _151
REMARK   66  A    between atoms: _150  and  _153
REMARK   67  A    between atoms: _153  and  _154
REMARK   68  A    between atoms: _156  and  _158
REMARK   69  A    between atoms: _158  and  _159
REMARK   70  A    between atoms: _158  and  _161
REMARK   71  A    between atoms: _161  and  _162
REMARK   72  A    between atoms: _172  and  _174
REMARK   73  A    between atoms: _174  and  _175
REMARK   74  A    between atoms: _177  and  _179
REMARK   75  A    between atoms: _179  and  _180
REMARK   76  A    between atoms: _179  and  _182
REMARK   77  A    between atoms: _182  and  _183
REMARK   78  A    between atoms: _188  and  _189
REMARK   79  A    between atoms: _191  and  _193
REMARK   80  A    between atoms: _193  and  _194
REMARK   81  A    between atoms: _196  and  _198
REMARK   82  A    between atoms: _198  and  _199
REMARK   83  A    between atoms: _198  and  _201
REMARK   84  A    between atoms: _201  and  _202
REMARK   85  A    between atoms: _203  and  _205
REMARK   86  A    between atoms: _205  and  _206
REMARK   87  A    between atoms: _209  and  _211
REMARK   88  A    between atoms: _211  and  _212
REMARK   89  A    between atoms: _211  and  _214
REMARK   90  A    between atoms: _214  and  _215
REMARK   91  A    between atoms: _215  and  _216
REMARK   92  A    between atoms: _219  and  _221
REMARK   93  A    between atoms: _221  and  _222
REMARK   94  A    between atoms: _221  and  _224
REMARK   95  A    between atoms: _224  and  _225
REMARK   96  A    between atoms: _231  and  _232
REMARK   97  A    between atoms: _237  and  _239
REMARK   98  A    between atoms: _239  and  _240
REMARK   99  A    between atoms: _242  and  _244
REMARK  100  A    between atoms: _244  and  _245
REMARK  101  A    between atoms: _244  and  _247
REMARK  102  A    between atoms: _250  and  _252
REMARK  103  A    between atoms: _252  and  _253
REMARK  104  A    between atoms: _252  and  _255
REMARK  105  A    between atoms: _255  and  _256
REMARK  106  A    between atoms: _261  and  _262
REMARK                            x       y       z     vdW  Elec       q    Type
REMARK                         _______ _______ _______ _____ _____    ______ ____
ROOT
ATOM      1  CA  VAL A   1      29.468  21.415  64.408  0.00  0.00    +0.133 C 
ENDROOT
BRANCH   1   2
ATOM      2  CB  VAL A   1      30.068  20.464  63.328  0.00  0.00    +0.023 C 
ATOM      3  CG2 VAL A   1      29.629  19.029  63.582  0.00  0.00    +0.002 C 
ATOM      4  CG1 VAL A   1      31.601  20.570  63.300  0.00  0.00    +0.002 C 
ENDBRANCH   1   2
BRANCH   1   5
ATOM      5  N   VAL A   1      28.011  21.350  64.407  0.00  0.00    -0.239 NA
ATOM      6  H   VAL A   1      27.509  21.416  63.498  0.00  0.00    +0.142 HD
ENDBRANCH   1   5
BRANCH   1   7
ATOM      7  C   VAL A   1      29.943  22.837  64.105  0.00  0.00    +0.224 C 
ATOM      8  O   VAL A   1      29.515  23.444  63.122  0.00  0.00    -0.287 OA
ENDBRANCH   1   7
TORSDOF 3
REMARK  Name = ../refined-set-2016/1utj/1utj_pocket.pdb
REMARK  106 active torsions:
REMARK  status: ('A' for Active; 'I' for Inactive)
REMARK    1  A    between atoms: _1  and  _3
REMARK    2  A    between atoms: _3  and  _4
REMARK    3  A    between atoms: _3  and  _6
REMARK    4  A    between atoms: _9  and  _11
REMARK    5  A    between atoms: _11  and  _12
REMARK    6  A    between atoms: _11  and  _14
REMARK    7  A    between atoms: _14  and  _15
REMARK    8  A    between atoms: _20  and  _22
REMARK    9  A    between atoms: _22  and  _23
REMARK   10  A    between atoms: _22  and  _25
REMARK   11  A    between atoms: _25  and  _26
REMARK   12  A    between atoms: _31  and  _33
REMARK   13  A    between atoms: _33  and  _34
REMARK   14  A    between atoms: _33  and  _36
REMARK   15  A    between atoms: _36  and  _37
REMARK   16  A    between atoms: _42  and  _43
REMARK   17  A    between atoms: _45  and  _47
REMARK   18  A    between atoms: _47  and  _48
REMARK   19  A    between atoms: _51  and  _53
REMARK   20  A    between atoms: _53  and  _54
REMARK   21  A    between atoms: _53  and  _56
REMARK   22  A    between atoms: _56  and  _57
REMARK   23  A    between atoms: _57  and  _58
REMARK   24  A    between atoms: _58  and  _59
REMARK   25  A    between atoms: _59  and  _60
REMARK   26  A    between atoms: _64  and  _66
REMARK   27  A    between atoms: _66  and  _67
REMARK   28  A    between atoms: _66  and  _69
REMARK   29  A    between atoms: _69  and  _70
REMARK   30  A    between atoms: _73  and  _75
REMARK   31  A    between atoms: _75  and  _76
REMARK   32  A    between atoms: _75  and  _78
REMARK   33  A    between atoms: _78  and  _79
REMARK   34  A    between atoms: _81  and  _83
REMARK   35  A    between atoms: _83  and  _84
REMARK   36  A    between atoms: _83  and  _86
REMARK   37  A    between atoms: _86  and  _87
REMARK   38  A    between atoms: _87  and  _202
REMARK   39  A    between atoms: _88  and  _90
REMARK   40  A    between atoms: _90  and  _91
REMARK   41  A    between atoms: _90  and  _93
REMARK   42  A    between atoms: _93  and  _94
REMARK   43  A    between atoms: _94  and  _95
REMARK   44  A    between atoms: _100  and  _102
REMARK   45  A    between atoms: _102  and  _103
REMARK   46  A    between atoms: _105  and  _107
REMARK   47  A    between atoms: _107  and  _108
REMARK   48  A    between atoms: _107  and  _110
REMARK   49  A    between atoms: _110  and  _111
REMARK   50  A    between atoms: _114  and  _116
REMARK   51  A    between atoms: _116  and  _117
REMARK   52  A    between atoms: _116  and  _119
REMARK   53  A    between atoms: _119  and  _120
REMARK   54  A    between atoms: _122  and  _124
REMARK   55  A    between atoms: _124  and  _125
REMARK   56  A    between atoms: _127  and  _129
REMARK   57  A    between atoms: _129  and  _130
REMARK   58  A    between atoms: _132  and  _134
REMARK   59  A    between atoms: _134  and  _135
REMARK   60  A    between atoms: _134  and  _137
REMARK   61  A    between atoms: _140  and  _142
REMARK   62  A    between atoms: _142  and  _143
REMARK   63  A    between atoms: _142  and  _145
REMARK   64  A    between atoms: _148  and  _150
REMARK   65  A    between atoms: _150  and  _151
REMARK   66  A    between atoms: _150  and  _153
REMARK   67  A    between atoms: _153  and  _154
REMARK   68  A    between atoms: _156  and  _158
REMARK   69  A    between atoms: _158  and  _159
REMARK   70  A    between atoms: _158  and  _161
REMARK   71  A    between atoms: _161  and  _162
REMARK   72  A    between atoms: _172  and  _174
REMARK   73  A    between atoms: _174  and  _175
REMARK   74  A    between atoms: _177  and  _179
REMARK   75  A    between atoms: _179  and  _180
REMARK   76  A    between atoms: _179  and  _182
REMARK   77  A    between atoms: _182  and  _183
REMARK   78  A    between atoms: _188  and  _189
REMARK   79  A    between atoms: _191  and  _193
REMARK   80  A    between atoms: _193  and  _194
REMARK   81  A    between atoms: _196  and  _198
REMARK   82  A    between atoms: _198  and  _199
REMARK   83  A    between atoms: _198  and  _201
REMARK   84  A    between atoms: _201  and  _202
REMARK   85  A    between atoms: _203  and  _205
REMARK   86  A    between atoms: _205  and  _206
REMARK   87  A    between atoms: _209  and  _211
REMARK   88  A    between atoms: _211  and  _212
REMARK   89  A    between atoms: _211  and  _214
REMARK   90  A    between atoms: _214  and  _215
REMARK   91  A    between atoms: _215  and  _216
REMARK   92  A    between atoms: _219  and  _221
REMARK   93  A    between atoms: _221  and  _222
REMARK   94  A    between atoms: _221  and  _224
REMARK   95  A    between atoms: _224  and  _225
REMARK   96  A    between atoms: _231  and  _232
REMARK   97  A    between atoms: _237  and  _239
REMARK   98  A    between atoms: _239  and  _240
REMARK   99  A    between atoms: _242  and  _244
REMARK  100  A    between atoms: _244  and  _245
REMARK  101  A    between atoms: _244  and  _247
REMARK  102  A    between atoms: _250  and  _252
REMARK  103  A    between atoms: _252  and  _253
REMARK  104  A    between atoms: _252  and  _255
REMARK  105  A    between atoms: _255  and  _256
REMARK  106  A    between atoms: _261  and  _262
REMARK                            x       y       z     vdW  Elec       q    Type
REMARK                         _______ _______ _______ _____ _____    ______ ____
ROOT
ATOM      1  CB  HIS A   1      14.645   9.914  57.547  0.00  0.00    +0.072 C 
ENDROOT
BRANCH   1   2
ATOM      2  CG  HIS A   1      15.580  10.849  58.262  0.00  0.00    +0.082 A 
ATOM      3  CD2 HIS A   1      16.412  10.648  59.315  0.00  0.00    +0.115 A 
ATOM      4  NE2 HIS A   1      17.079  11.831  59.537  0.00  0.00    -0.221 NA
ATOM      5  CE1 HIS A   1      16.673  12.727  58.657  0.00  0.00    +0.199 A 
ATOM      6  ND1 HIS A   1      15.768  12.160  57.874  0.00  0.00    -0.227 NA
ENDBRANCH   1   2
BRANCH   1   7
ATOM      7  CA  HIS A   1      13.226   9.791  58.178  0.00  0.00    +0.139 C 
BRANCH   7   8
ATOM      8  N   HIS A   1      12.336  10.897  57.813  0.00  0.00    -0.239 NA
ATOM      9  H   HIS A   1      12.726  11.775  57.414  0.00  0.00    +0.142 HD
ENDBRANCH   7   8
BRANCH   7  10
ATOM     10  C   HIS A   1      13.271   9.584  59.698  0.00  0.00    +0.224 C 
ATOM     11  O   HIS A   1      13.748   8.560  60.163  0.00  0.00    -0.287 OA
ENDBRANCH   7  10
ENDBRANCH   1   7
TORSDOF 4
REMARK  Name = ../refined-set-2016/1utj/1utj_pocket.pdb
REMARK  106 active torsions:
REMARK  status: ('A' for Active; 'I' for Inactive)
REMARK    1  A    between atoms: _1  and  _3
REMARK    2  A    between atoms: _3  and  _4
REMARK    3  A    between atoms: _3  and  _6
REMARK    4  A    between atoms: _9  and  _11
REMARK    5  A    between atoms: _11  and  _12
REMARK    6  A    between atoms: _11  and  _14
REMARK    7  A    between atoms: _14  and  _15
REMARK    8  A    between atoms: _20  and  _22
REMARK    9  A    between atoms: _22  and  _23
REMARK   10  A    between atoms: _22  and  _25
REMARK   11  A    between atoms: _25  and  _26
REMARK   12  A    between atoms: _31  and  _33
REMARK   13  A    between atoms: _33  and  _34
REMARK   14  A    between atoms: _33  and  _36
REMARK   15  A    between atoms: _36  and  _37
REMARK   16  A    between atoms: _42  and  _43
REMARK   17  A    between atoms: _45  and  _47
REMARK   18  A    between atoms: _47  and  _48
REMARK   19  A    between atoms: _51  and  _53
REMARK   20  A    between atoms: _53  and  _54
REMARK   21  A    between atoms: _53  and  _56
REMARK   22  A    between atoms: _56  and  _57
REMARK   23  A    between atoms: _57  and  _58
REMARK   24  A    between atoms: _58  and  _59
REMARK   25  A    between atoms: _59  and  _60
REMARK   26  A    between atoms: _64  and  _66
REMARK   27  A    between atoms: _66  and  _67
REMARK   28  A    between atoms: _66  and  _69
REMARK   29  A    between atoms: _69  and  _70
REMARK   30  A    between atoms: _73  and  _75
REMARK   31  A    between atoms: _75  and  _76
REMARK   32  A    between atoms: _75  and  _78
REMARK   33  A    between atoms: _78  and  _79
REMARK   34  A    between atoms: _81  and  _83
REMARK   35  A    between atoms: _83  and  _84
REMARK   36  A    between atoms: _83  and  _86
REMARK   37  A    between atoms: _86  and  _87
REMARK   38  A    between atoms: _87  and  _202
REMARK   39  A    between atoms: _88  and  _90
REMARK   40  A    between atoms: _90  and  _91
REMARK   41  A    between atoms: _90  and  _93
REMARK   42  A    between atoms: _93  and  _94
REMARK   43  A    between atoms: _94  and  _95
REMARK   44  A    between atoms: _100  and  _102
REMARK   45  A    between atoms: _102  and  _103
REMARK   46  A    between atoms: _105  and  _107
REMARK   47  A    between atoms: _107  and  _108
REMARK   48  A    between atoms: _107  and  _110
REMARK   49  A    between atoms: _110  and  _111
REMARK   50  A    between atoms: _114  and  _116
REMARK   51  A    between atoms: _116  and  _117
REMARK   52  A    between atoms: _116  and  _119
REMARK   53  A    between atoms: _119  and  _120
REMARK   54  A    between atoms: _122  and  _124
REMARK   55  A    between atoms: _124  and  _125
REMARK   56  A    between atoms: _127  and  _129
REMARK   57  A    between atoms: _129  and  _130
REMARK   58  A    between atoms: _132  and  _134
REMARK   59  A    between atoms: _134  and  _135
REMARK   60  A    between atoms: _134  and  _137
REMARK   61  A    between atoms: _140  and  _142
REMARK   62  A    between atoms: _142  and  _143
REMARK   63  A    between atoms: _142  and  _145
REMARK   64  A    between atoms: _148  and  _150
REMARK   65  A    between atoms: _150  and  _151
REMARK   66  A    between atoms: _150  and  _153
REMARK   67  A    between atoms: _153  and  _154
REMARK   68  A    between atoms: _156  and  _158
REMARK   69  A    between atoms: _158  and  _159
REMARK   70  A    between atoms: _158  and  _161
REMARK   71  A    between atoms: _161  and  _162
REMARK   72  A    between atoms: _172  and  _174
REMARK   73  A    between atoms: _174  and  _175
REMARK   74  A    between atoms: _177  and  _179
REMARK   75  A    between atoms: _179  and  _180
REMARK   76  A    between atoms: _179  and  _182
REMARK   77  A    between atoms: _182  and  _183
REMARK   78  A    between atoms: _188  and  _189
REMARK   79  A    between atoms: _191  and  _193
REMARK   80  A    between atoms: _193  and  _194
REMARK   81  A    between atoms: _196  and  _198
REMARK   82  A    between atoms: _198  and  _199
REMARK   83  A    between atoms: _198  and  _201
REMARK   84  A    between atoms: _201  and  _202
REMARK   85  A    between atoms: _203  and  _205
REMARK   86  A    between atoms: _205  and  _206
REMARK   87  A    between atoms: _209  and  _211
REMARK   88  A    between atoms: _211  and  _212
REMARK   89  A    between atoms: _211  and  _214
REMARK   90  A    between atoms: _214  and  _215
REMARK   91  A    between atoms: _215  and  _216
REMARK   92  A    between atoms: _219  and  _221
REMARK   93  A    between atoms: _221  and  _222
REMARK   94  A    between atoms: _221  and  _224
REMARK   95  A    between atoms: _224  and  _225
REMARK   96  A    between atoms: _231  and  _232
REMARK   97  A    between atoms: _237  and  _239
REMARK   98  A    between atoms: _239  and  _240
REMARK   99  A    between atoms: _242  and  _244
REMARK  100  A    between atoms: _244  and  _245
REMARK  101  A    between atoms: _244  and  _247
REMARK  102  A    between atoms: _250  and  _252
REMARK  103  A    between atoms: _252  and  _253
REMARK  104  A    between atoms: _252  and  _255
REMARK  105  A    between atoms: _255  and  _256
REMARK  106  A    between atoms: _261  and  _262
REMARK                            x       y       z     vdW  Elec       q    Type
REMARK                         _______ _______ _______ _____ _____    ______ ____
ROOT
ATOM      1  CB  ASN A   1      27.322  14.575  66.191  0.00  0.00    +0.110 C 
ENDROOT
BRANCH   1   2
ATOM      2  CG  ASN A   1      27.148  13.079  66.447  0.00  0.00    +0.221 C 
ATOM      3  ND2 ASN A   1      26.342  12.684  67.436  0.00  0.00    -0.329 N 
ATOM      4 HD21 ASN A   1      25.881  13.390  68.045  0.00  0.00    +0.145 HD
ATOM      5 HD22 ASN A   1      26.175  11.670  67.597  0.00  0.00    +0.145 HD
ATOM      6  OD1 ASN A   1      27.718  12.284  65.697  0.00  0.00    -0.275 OA
ENDBRANCH   1   2
BRANCH   1   7
ATOM      7  CA  ASN A   1      26.763  15.470  67.297  0.00  0.00    +0.142 C 
BRANCH   7   8
ATOM      8  N   ASN A   1      25.306  15.597  67.183  0.00  0.00    -0.239 NA
ATOM      9  H   ASN A   1      24.795  14.940  66.559  0.00  0.00    +0.142 HD
ENDBRANCH   7   8
BRANCH   7  10
ATOM     10  C   ASN A   1      27.432  16.834  67.112  0.00  0.00    +0.225 C 
ATOM     11  O   ASN A   1      27.073  17.592  66.201  0.00  0.00    -0.287 OA
ENDBRANCH   7  10
ENDBRANCH   1   7
TORSDOF 4
REMARK  Name = ../refined-set-2016/1utj/1utj_pocket.pdb
REMARK  106 active torsions:
REMARK  status: ('A' for Active; 'I' for Inactive)
REMARK    1  A    between atoms: _1  and  _3
REMARK    2  A    between atoms: _3  and  _4
REMARK    3  A    between atoms: _3  and  _6
REMARK    4  A    between atoms: _9  and  _11
REMARK    5  A    between atoms: _11  and  _12
REMARK    6  A    between atoms: _11  and  _14
REMARK    7  A    between atoms: _14  and  _15
REMARK    8  A    between atoms: _20  and  _22
REMARK    9  A    between atoms: _22  and  _23
REMARK   10  A    between atoms: _22  and  _25
REMARK   11  A    between atoms: _25  and  _26
REMARK   12  A    between atoms: _31  and  _33
REMARK   13  A    between atoms: _33  and  _34
REMARK   14  A    between atoms: _33  and  _36
REMARK   15  A    between atoms: _36  and  _37
REMARK   16  A    between atoms: _42  and  _43
REMARK   17  A    between atoms: _45  and  _47
REMARK   18  A    between atoms: _47  and  _48
REMARK   19  A    between atoms: _51  and  _53
REMARK   20  A    between atoms: _53  and  _54
REMARK   21  A    between atoms: _53  and  _56
REMARK   22  A    between atoms: _56  and  _57
REMARK   23  A    between atoms: _57  and  _58
REMARK   24  A    between atoms: _58  and  _59
REMARK   25  A    between atoms: _59  and  _60
REMARK   26  A    between atoms: _64  and  _66
REMARK   27  A    between atoms: _66  and  _67
REMARK   28  A    between atoms: _66  and  _69
REMARK   29  A    between atoms: _69  and  _70
REMARK   30  A    between atoms: _73  and  _75
REMARK   31  A    between atoms: _75  and  _76
REMARK   32  A    between atoms: _75  and  _78
REMARK   33  A    between atoms: _78  and  _79
REMARK   34  A    between atoms: _81  and  _83
REMARK   35  A    between atoms: _83  and  _84
REMARK   36  A    between atoms: _83  and  _86
REMARK   37  A    between atoms: _86  and  _87
REMARK   38  A    between atoms: _87  and  _202
REMARK   39  A    between atoms: _88  and  _90
REMARK   40  A    between atoms: _90  and  _91
REMARK   41  A    between atoms: _90  and  _93
REMARK   42  A    between atoms: _93  and  _94
REMARK   43  A    between atoms: _94  and  _95
REMARK   44  A    between atoms: _100  and  _102
REMARK   45  A    between atoms: _102  and  _103
REMARK   46  A    between atoms: _105  and  _107
REMARK   47  A    between atoms: _107  and  _108
REMARK   48  A    between atoms: _107  and  _110
REMARK   49  A    between atoms: _110  and  _111
REMARK   50  A    between atoms: _114  and  _116
REMARK   51  A    between atoms: _116  and  _117
REMARK   52  A    between atoms: _116  and  _119
REMARK   53  A    between atoms: _119  and  _120
REMARK   54  A    between atoms: _122  and  _124
REMARK   55  A    between atoms: _124  and  _125
REMARK   56  A    between atoms: _127  and  _129
REMARK   57  A    between atoms: _129  and  _130
REMARK   58  A    between atoms: _132  and  _134
REMARK   59  A    between atoms: _134  and  _135
REMARK   60  A    between atoms: _134  and  _137
REMARK   61  A    between atoms: _140  and  _142
REMARK   62  A    between atoms: _142  and  _143
REMARK   63  A    between atoms: _142  and  _145
REMARK   64  A    between atoms: _148  and  _150
REMARK   65  A    between atoms: _150  and  _151
REMARK   66  A    between atoms: _150  and  _153
REMARK   67  A    between atoms: _153  and  _154
REMARK   68  A    between atoms: _156  and  _158
REMARK   69  A    between atoms: _158  and  _159
REMARK   70  A    between atoms: _158  and  _161
REMARK   71  A    between atoms: _161  and  _162
REMARK   72  A    between atoms: _172  and  _174
REMARK   73  A    between atoms: _174  and  _175
REMARK   74  A    between atoms: _177  and  _179
REMARK   75  A    between atoms: _179  and  _180
REMARK   76  A    between atoms: _179  and  _182
REMARK   77  A    between atoms: _182  and  _183
REMARK   78  A    between atoms: _188  and  _189
REMARK   79  A    between atoms: _191  and  _193
REMARK   80  A    between atoms: _193  and  _194
REMARK   81  A    between atoms: _196  and  _198
REMARK   82  A    between atoms: _198  and  _199
REMARK   83  A    between atoms: _198  and  _201
REMARK   84  A    between atoms: _201  and  _202
REMARK   85  A    between atoms: _203  and  _205
REMARK   86  A    between atoms: _205  and  _206
REMARK   87  A    between atoms: _209  and  _211
REMARK   88  A    between atoms: _211  and  _212
REMARK   89  A    between atoms: _211  and  _214
REMARK   90  A    between atoms: _214  and  _215
REMARK   91  A    between atoms: _215  and  _216
REMARK   92  A    between atoms: _219  and  _221
REMARK   93  A    between atoms: _221  and  _222
REMARK   94  A    between atoms: _221  and  _224
REMARK   95  A    between atoms: _224  and  _225
REMARK   96  A    between atoms: _231  and  _232
REMARK   97  A    between atoms: _237  and  _239
REMARK   98  A    between atoms: _239  and  _240
REMARK   99  A    between atoms: _242  and  _244
REMARK  100  A    between atoms: _244  and  _245
REMARK  101  A    between atoms: _244  and  _247
REMARK  102  A    between atoms: _250  and  _252
REMARK  103  A    between atoms: _252  and  _253
REMARK  104  A    between atoms: _252  and  _255
REMARK  105  A    between atoms: _255  and  _256
REMARK  106  A    between atoms: _261  and  _262
REMARK                            x       y       z     vdW  Elec       q    Type
REMARK                         _______ _______ _______ _____ _____    ______ ____
ROOT
ATOM      1  CG  TYR A   1      25.497  16.105  47.593  0.00  0.00    -0.020 A 
ATOM      2  CD2 TYR A   1      25.092  17.243  48.295  0.00  0.00    -0.001 A 
ATOM      3  CE2 TYR A   1      25.596  17.520  49.571  0.00  0.00    +0.036 A 
ATOM      4  CZ  TYR A   1      26.507  16.648  50.144  0.00  0.00    +0.134 A 
ATOM      5  CE1 TYR A   1      26.925  15.521  49.464  0.00  0.00    +0.036 A 
ATOM      6  CD1 TYR A   1      26.423  15.257  48.198  0.00  0.00    -0.001 A 
ENDROOT
BRANCH   4   7
ATOM      7  OH  TYR A   1      26.999  16.863  51.406  0.00  0.00    -0.506 OA
ATOM      8  HH  TYR A   1      26.250  16.871  52.054  0.00  0.00    +0.292 HD
ENDBRANCH   4   7
BRANCH   1   9
ATOM      9  CB  TYR A   1      24.922  15.779  46.228  0.00  0.00    +0.051 C 
BRANCH   9  10
ATOM     10  CA  TYR A   1      25.948  15.816  45.084  0.00  0.00    +0.137 C 
BRANCH  10  11
ATOM     11  N   TYR A   1      26.655  17.103  45.095  0.00  0.00    -0.239 NA
ATOM     12  H   TYR A   1      26.135  17.954  44.800  0.00  0.00    +0.142 HD
ENDBRANCH  10  11
BRANCH  10  13
ATOM     13  C   TYR A   1      25.237  15.651  43.734  0.00  0.00    +0.224 C 
ATOM     14  O   TYR A   1      23.994  15.693  43.645  0.00  0.00    -0.287 OA
ENDBRANCH  10  13
ENDBRANCH   9  10
ENDBRANCH   1   9
TORSDOF 5
REMARK  Name = ../refined-set-2016/1utj/1utj_pocket.pdb
REMARK  106 active torsions:
REMARK  status: ('A' for Active; 'I' for Inactive)
REMARK    1  A    between atoms: _1  and  _3
REMARK    2  A    between atoms: _3  and  _4
REMARK    3  A    between atoms: _3  and  _6
REMARK    4  A    between atoms: _9  and  _11
REMARK    5  A    between atoms: _11  and  _12
REMARK    6  A    between atoms: _11  and  _14
REMARK    7  A    between atoms: _14  and  _15
REMARK    8  A    between atoms: _20  and  _22
REMARK    9  A    between atoms: _22  and  _23
REMARK   10  A    between atoms: _22  and  _25
REMARK   11  A    between atoms: _25  and  _26
REMARK   12  A    between atoms: _31  and  _33
REMARK   13  A    between atoms: _33  and  _34
REMARK   14  A    between atoms: _33  and  _36
REMARK   15  A    between atoms: _36  and  _37
REMARK   16  A    between atoms: _42  and  _43
REMARK   17  A    between atoms: _45  and  _47
REMARK   18  A    between atoms: _47  and  _48
REMARK   19  A    between atoms: _51  and  _53
REMARK   20  A    between atoms: _53  and  _54
REMARK   21  A    between atoms: _53  and  _56
REMARK   22  A    between atoms: _56  and  _57
REMARK   23  A    between atoms: _57  and  _58
REMARK   24  A    between atoms: _58  and  _59
REMARK   25  A    between atoms: _59  and  _60
REMARK   26  A    between atoms: _64  and  _66
REMARK   27  A    between atoms: _66  and  _67
REMARK   28  A    between atoms: _66  and  _69
REMARK   29  A    between atoms: _69  and  _70
REMARK   30  A    between atoms: _73  and  _75
REMARK   31  A    between atoms: _75  and  _76
REMARK   32  A    between atoms: _75  and  _78
REMARK   33  A    between atoms: _78  and  _79
REMARK   34  A    between atoms: _81  and  _83
REMARK   35  A    between atoms: _83  and  _84
REMARK   36  A    between atoms: _83  and  _86
REMARK   37  A    between atoms: _86  and  _87
REMARK   38  A    between atoms: _87  and  _202
REMARK   39  A    between atoms: _88  and  _90
REMARK   40  A    between atoms: _90  and  _91
REMARK   41  A    between atoms: _90  and  _93
REMARK   42  A    between atoms: _93  and  _94
REMARK   43  A    between atoms: _94  and  _95
REMARK   44  A    between atoms: _100  and  _102
REMARK   45  A    between atoms: _102  and  _103
REMARK   46  A    between atoms: _105  and  _107
REMARK   47  A    between atoms: _107  and  _108
REMARK   48  A    between atoms: _107  and  _110
REMARK   49  A    between atoms: _110  and  _111
REMARK   50  A    between atoms: _114  and  _116
REMARK   51  A    between atoms: _116  and  _117
REMARK   52  A    between atoms: _116  and  _119
REMARK   53  A    between atoms: _119  and  _120
REMARK   54  A    between atoms: _122  and  _124
REMARK   55  A    between atoms: _124  and  _125
REMARK   56  A    between atoms: _127  and  _129
REMARK   57  A    between atoms: _129  and  _130
REMARK   58  A    between atoms: _132  and  _134
REMARK   59  A    between atoms: _134  and  _135
REMARK   60  A    between atoms: _134  and  _137
REMARK   61  A    between atoms: _140  and  _142
REMARK   62  A    between atoms: _142  and  _143
REMARK   63  A    between atoms: _142  and  _145
REMARK   64  A    between atoms: _148  and  _150
REMARK   65  A    between atoms: _150  and  _151
REMARK   66  A    between atoms: _150  and  _153
REMARK   67  A    between atoms: _153  and  _154
REMARK   68  A    between atoms: _156  and  _158
REMARK   69  A    between atoms: _158  and  _159
REMARK   70  A    between atoms: _158  and  _161
REMARK   71  A    between atoms: _161  and  _162
REMARK   72  A    between atoms: _172  and  _174
REMARK   73  A    between atoms: _174  and  _175
REMARK   74  A    between atoms: _177  and  _179
REMARK   75  A    between atoms: _179  and  _180
REMARK   76  A    between atoms: _179  and  _182
REMARK   77  A    between atoms: _182  and  _183
REMARK   78  A    between atoms: _188  and  _189
REMARK   79  A    between atoms: _191  and  _193
REMARK   80  A    between atoms: _193  and  _194
REMARK   81  A    between atoms: _196  and  _198
REMARK   82  A    between atoms: _198  and  _199
REMARK   83  A    between atoms: _198  and  _201
REMARK   84  A    between atoms: _201  and  _202
REMARK   85  A    between atoms: _203  and  _205
REMARK   86  A    between atoms: _205  and  _206
REMARK   87  A    between atoms: _209  and  _211
REMARK   88  A    between atoms: _211  and  _212
REMARK   89  A    between atoms: _211  and  _214
REMARK   90  A    between atoms: _214  and  _215
REMARK   91  A    between atoms: _215  and  _216
REMARK   92  A    between atoms: _219  and  _221
REMARK   93  A    between atoms: _221  and  _222
REMARK   94  A    between atoms: _221  and  _224
REMARK   95  A    between atoms: _224  and  _225
REMARK   96  A    between atoms: _231  and  _232
REMARK   97  A    between atoms: _237  and  _239
REMARK   98  A    between atoms: _239  and  _240
REMARK   99  A    between atoms: _242  and  _244
REMARK  100  A    between atoms: _244  and  _245
REMARK  101  A    between atoms: _244  and  _247
REMARK  102  A    between atoms: _250  and  _252
REMARK  103  A    between atoms: _252  and  _253
REMARK  104  A    between atoms: _252  and  _255
REMARK  105  A    between atoms: _255  and  _256
REMARK  106  A    between atoms: _261  and  _262
REMARK                            x       y       z     vdW  Elec       q    Type
REMARK                         _______ _______ _______ _____ _____    ______ ____
ROOT
ATOM      1  CA  ALA A   1      23.069  25.301  53.053  0.00  0.00    +0.133 C 
ATOM      2  CB  ALA A   1      21.881  25.663  53.953  0.00  0.00    +0.027 C 
ENDROOT
BRANCH   1   3
ATOM      3  N   ALA A   1      22.781  24.113  52.266  0.00  0.00    -0.239 NA
ATOM      4  H   ALA A   1      23.079  23.183  52.625  0.00  0.00    +0.142 HD
ENDBRANCH   1   3
BRANCH   1   5
ATOM      5  C   ALA A   1      24.304  24.977  53.875  0.00  0.00    +0.224 C 
ATOM      6  O   ALA A   1      24.507  23.825  54.264  0.00  0.00    -0.287 OA
ENDBRANCH   1   5
TORSDOF 2
REMARK  Name = ../refined-set-2016/1utj/1utj_pocket.pdb
REMARK  106 active torsions:
REMARK  status: ('A' for Active; 'I' for Inactive)
REMARK    1  A    between atoms: _1  and  _3
REMARK    2  A    between atoms: _3  and  _4
REMARK    3  A    between atoms: _3  and  _6
REMARK    4  A    between atoms: _9  and  _11
REMARK    5  A    between atoms: _11  and  _12
REMARK    6  A    between atoms: _11  and  _14
REMARK    7  A    between atoms: _14  and  _15
REMARK    8  A    between atoms: _20  and  _22
REMARK    9  A    between atoms: _22  and  _23
REMARK   10  A    between atoms: _22  and  _25
REMARK   11  A    between atoms: _25  and  _26
REMARK   12  A    between atoms: _31  and  _33
REMARK   13  A    between atoms: _33  and  _34
REMARK   14  A    between atoms: _33  and  _36
REMARK   15  A    between atoms: _36  and  _37
REMARK   16  A    between atoms: _42  and  _43
REMARK   17  A    between atoms: _45  and  _47
REMARK   18  A    between atoms: _47  and  _48
REMARK   19  A    between atoms: _51  and  _53
REMARK   20  A    between atoms: _53  and  _54
REMARK   21  A    between atoms: _53  and  _56
REMARK   22  A    between atoms: _56  and  _57
REMARK   23  A    between atoms: _57  and  _58
REMARK   24  A    between atoms: _58  and  _59
REMARK   25  A    between atoms: _59  and  _60
REMARK   26  A    between atoms: _64  and  _66
REMARK   27  A    between atoms: _66  and  _67
REMARK   28  A    between atoms: _66  and  _69
REMARK   29  A    between atoms: _69  and  _70
REMARK   30  A    between atoms: _73  and  _75
REMARK   31  A    between atoms: _75  and  _76
REMARK   32  A    between atoms: _75  and  _78
REMARK   33  A    between atoms: _78  and  _79
REMARK   34  A    between atoms: _81  and  _83
REMARK   35  A    between atoms: _83  and  _84
REMARK   36  A    between atoms: _83  and  _86
REMARK   37  A    between atoms: _86  and  _87
REMARK   38  A    between atoms: _87  and  _202
REMARK   39  A    between atoms: _88  and  _90
REMARK   40  A    between atoms: _90  and  _91
REMARK   41  A    between atoms: _90  and  _93
REMARK   42  A    between atoms: _93  and  _94
REMARK   43  A    between atoms: _94  and  _95
REMARK   44  A    between atoms: _100  and  _102
REMARK   45  A    between atoms: _102  and  _103
REMARK   46  A    between atoms: _105  and  _107
REMARK   47  A    between atoms: _107  and  _108
REMARK   48  A    between atoms: _107  and  _110
REMARK   49  A    between atoms: _110  and  _111
REMARK   50  A    between atoms: _114  and  _116
REMARK   51  A    between atoms: _116  and  _117
REMARK   52  A    between atoms: _116  and  _119
REMARK   53  A    between atoms: _119  and  _120
REMARK   54  A    between atoms: _122  and  _124
REMARK   55  A    between atoms: _124  and  _125
REMARK   56  A    between atoms: _127  and  _129
REMARK   57  A    between atoms: _129  and  _130
REMARK   58  A    between atoms: _132  and  _134
REMARK   59  A    between atoms: _134  and  _135
REMARK   60  A    between atoms: _134  and  _137
REMARK   61  A    between atoms: _140  and  _142
REMARK   62  A    between atoms: _142  and  _143
REMARK   63  A    between atoms: _142  and  _145
REMARK   64  A    between atoms: _148  and  _150
REMARK   65  A    between atoms: _150  and  _151
REMARK   66  A    between atoms: _150  and  _153
REMARK   67  A    between atoms: _153  and  _154
REMARK   68  A    between atoms: _156  and  _158
REMARK   69  A    between atoms: _158  and  _159
REMARK   70  A    between atoms: _158  and  _161
REMARK   71  A    between atoms: _161  and  _162
REMARK   72  A    between atoms: _172  and  _174
REMARK   73  A    between atoms: _174  and  _175
REMARK   74  A    between atoms: _177  and  _179
REMARK   75  A    between atoms: _179  and  _180
REMARK   76  A    between atoms: _179  and  _182
REMARK   77  A    between atoms: _182  and  _183
REMARK   78  A    between atoms: _188  and  _189
REMARK   79  A    between atoms: _191  and  _193
REMARK   80  A    between atoms: _193  and  _194
REMARK   81  A    between atoms: _196  and  _198
REMARK   82  A    between atoms: _198  and  _199
REMARK   83  A    between atoms: _198  and  _201
REMARK   84  A    between atoms: _201  and  _202
REMARK   85  A    between atoms: _203  and  _205
REMARK   86  A    between atoms: _205  and  _206
REMARK   87  A    between atoms: _209  and  _211
REMARK   88  A    between atoms: _211  and  _212
REMARK   89  A    between atoms: _211  and  _214
REMARK   90  A    between atoms: _214  and  _215
REMARK   91  A    between atoms: _215  and  _216
REMARK   92  A    between atoms: _219  and  _221
REMARK   93  A    between atoms: _221  and  _222
REMARK   94  A    between atoms: _221  and  _224
REMARK   95  A    between atoms: _224  and  _225
REMARK   96  A    between atoms: _231  and  _232
REMARK   97  A    between atoms: _237  and  _239
REMARK   98  A    between atoms: _239  and  _240
REMARK   99  A    between atoms: _242  and  _244
REMARK  100  A    between atoms: _244  and  _245
REMARK  101  A    between atoms: _244  and  _247
REMARK  102  A    between atoms: _250  and  _252
REMARK  103  A    between atoms: _252  and  _253
REMARK  104  A    between atoms: _252  and  _255
REMARK  105  A    between atoms: _255  and  _256
REMARK  106  A    between atoms: _261  and  _262
REMARK                            x       y       z     vdW  Elec       q    Type
REMARK                         _______ _______ _______ _____ _____    ______ ____
ROOT
ATOM      1  CA  SER A   8      29.475  16.613  58.937  0.00  0.00    +0.160 C 
ENDROOT
BRANCH   1   2
ATOM      2  N   SER A   8      29.869  15.345  58.336  0.00  0.00    -0.296 N 
ATOM      3  H   SER A   8      30.829  14.982  58.504  0.00  0.00    +0.150 HD
ATOM      4  C   ASP A   7      29.038  14.644  57.583  0.00  0.00    +0.243 C 
ATOM      5  O   ASP A   7      27.886  15.002  57.348  0.00  0.00    -0.273 OA
BRANCH   4   6
ATOM      6  CA  ASP A   7      29.581  13.354  56.997  0.00  0.00    +0.176 C 
BRANCH   6   7
ATOM      7  N   ASP A   7      28.805  12.958  55.832  0.00  0.00    -0.295 N 
ATOM      8  H   ASP A   7      28.240  12.086  55.863  0.00  0.00    +0.150 HD
ATOM      9  C   GLY A   6      28.810  13.697  54.729  0.00  0.00    +0.241 C 
ATOM     10  O   GLY A   6      29.435  14.757  54.628  0.00  0.00    -0.273 OA
BRANCH   9  11
ATOM     11  CA  GLY A   6      27.944  13.206  53.583  0.00  0.00    +0.153 C 
BRANCH  11  12
ATOM     12  N   GLY A   6      26.864  14.178  53.517  0.00  0.00    -0.297 N 
ATOM     13  C   GLN A   5      25.670  13.913  54.039  0.00  0.00    +0.243 C 
ATOM     14  O   GLN A   5      25.374  12.798  54.473  0.00  0.00    -0.273 OA
ATOM     15  H   GLY A   6      27.028  15.095  53.054  0.00  0.00    +0.150 HD
BRANCH  13  16
ATOM     16  CA  GLN A   5      24.620  15.010  53.973  0.00  0.00    +0.176 C 
BRANCH  16  17
ATOM     17  N   GLN A   5      23.356  14.503  54.484  0.00  0.00    -0.295 N 
ATOM     18  H   GLN A   5      23.268  13.488  54.695  0.00  0.00    +0.150 HD
ATOM     19  C   TRP A   4      22.310  15.297  54.690  0.00  0.00    +0.241 C 
ATOM     20  O   TRP A   4      22.342  16.506  54.520  0.00  0.00    -0.273 OA
BRANCH  19  21
ATOM     21  CA  TRP A   4      21.042  14.609  55.186  0.00  0.00    +0.153 C 
BRANCH  21  22
ATOM     22  N   TRP A   4      19.904  15.519  55.380  0.00  0.00    -0.297 N 
ATOM     23  C   SER A   3      18.897  15.176  56.186  0.00  0.00    +0.243 C 
ATOM     24  O   SER A   3      18.892  14.124  56.830  0.00  0.00    -0.273 OA
ATOM     25  H   TRP A   4      19.883  16.434  54.887  0.00  0.00    +0.150 HD
BRANCH  23  26
ATOM     26  CA  SER A   3      17.725  16.136  56.333  0.00  0.00    +0.178 C 
BRANCH  26  27
ATOM     27  N   SER A   3      17.987  17.408  56.995  0.00  0.00    -0.295 N 
ATOM     28  C   VAL A   2      17.350  17.726  58.120  0.00  0.00    +0.241 C 
ATOM     29  O   VAL A   2      16.582  16.946  58.697  0.00  0.00    -0.273 OA
ATOM     30  H   SER A   3      18.676  18.071  56.586  0.00  0.00    +0.150 HD
BRANCH  28  31
ATOM     31  CA  VAL A   2      17.626  19.125  58.694  0.00  0.00    +0.148 C 
BRANCH  31  32
ATOM     32  N   VAL A   2      16.345  19.837  58.794  0.00  0.00    -0.297 N 
ATOM     33  H   VAL A   2      16.032  20.204  59.715  0.00  0.00    +0.150 HD
ATOM     34  C   VAL A   1      15.578  20.018  57.716  0.00  0.00    +0.238 C 
ATOM     35  O   VAL A   1      15.908  19.620  56.587  0.00  0.00    -0.274 OA
BRANCH  34  36
ATOM     36  CA  VAL A   1      14.266  20.785  57.899  0.00  0.00    +0.145 C 
BRANCH  36  37
ATOM     37  CB  VAL A   1      13.083  19.821  57.653  0.00  0.00    +0.025 C 
ATOM     38  CG2 VAL A   1      13.175  18.618  58.572  0.00  0.00    +0.002 C 
ATOM     39  CG1 VAL A   1      11.741  20.554  57.847  0.00  0.00    +0.002 C 
ENDBRANCH  36  37
BRANCH  36  40
ATOM     40  N   VAL A   1      14.331  21.821  56.870  0.00  0.00    -0.238 NA
ATOM     41  H   VAL A   1      14.522  21.533  55.889  0.00  0.00    +0.142 HD
ENDBRANCH  36  40
ENDBRANCH  34  36
ENDBRANCH  31  32
BRANCH  31  42
ATOM     42  CB  VAL A   2      18.341  19.038  60.075  0.00  0.00    +0.027 C 
ATOM     43  CG2 VAL A   2      18.523  20.443  60.656  0.00  0.00    +0.002 C 
ATOM     44  CG1 VAL A   2      19.694  18.328  59.938  0.00  0.00    +0.002 C 
ENDBRANCH  31  42
ENDBRANCH  28  31
ENDBRANCH  26  27
BRANCH  26  45
ATOM     45  CB  SER A   3      17.040  16.386  54.979  0.00  0.00    +0.166 C 
BRANCH  45  46
ATOM     46  OG  SER A   3      16.666  15.171  54.366  0.00  0.00    -0.380 OA
ATOM     47  H   SER A   3      16.036  14.686  54.955  0.00  0.00    +0.211 HD
ENDBRANCH  45  46
ENDBRANCH  26  45
ENDBRANCH  23  26
ENDBRANCH  21  22
BRANCH  21  48
ATOM     48  CB  TRP A   4      20.661  13.458  54.221  0.00  0.00    +0.057 C 
BRANCH  48  49
ATOM     49  CG  TRP A   4      20.289  13.883  52.817  0.00  0.00    -0.002 A 
ATOM     50  CD1 TRP A   4      19.052  14.285  52.369  0.00  0.00    +0.068 A 
ATOM     51  NE1 TRP A   4      19.107  14.566  51.014  0.00  0.00    -0.352 N 
ATOM     52  CE2 TRP A   4      20.385  14.354  50.565  0.00  0.00    +0.056 A 
ATOM     53  CZ2 TRP A   4      20.930  14.504  49.284  0.00  0.00    +0.017 A 
ATOM     54  CH2 TRP A   4      22.266  14.218  49.113  0.00  0.00    +0.001 A 
ATOM     55  CZ3 TRP A   4      23.070  13.788  50.185  0.00  0.00    +0.000 A 
ATOM     56  CE3 TRP A   4      22.527  13.636  51.475  0.00  0.00    +0.001 A 
ATOM     57  HE1 TRP A   4      18.308  14.886  50.431  0.00  0.00    +0.166 HD
ATOM     58  CD2 TRP A   4      21.162  13.923  51.673  0.00  0.00    +0.013 A 
ENDBRANCH  48  49
ENDBRANCH  21  48
ENDBRANCH  19  21
ENDBRANCH  16  17
ENDBRANCH  13  16
ENDBRANCH  11  12
BRANCH  11  59
ATOM     59  CB  GLY A   6      28.757  13.184  52.284  0.00  0.00    +0.055 C 
BRANCH  59  60
ATOM     60  CG  GLY A   6      28.212  12.247  51.216  0.00  0.00    -0.020 A 
ATOM     61  CD2 GLY A   6      28.984  11.189  50.737  0.00  0.00    -0.001 A 
ATOM     62  CE2 GLY A   6      28.510  10.352  49.727  0.00  0.00    +0.036 A 
ATOM     63  CZ  GLY A   6      27.256  10.574  49.191  0.00  0.00    +0.134 A 
ATOM     64  CE1 GLY A   6      26.466  11.617  49.655  0.00  0.00    +0.036 A 
ATOM     65  CD1 GLY A   6      26.944  12.443  50.663  0.00  0.00    -0.001 A 
BRANCH  63  66
ATOM     66  OH  GLY A   6      26.793   9.763  48.183  0.00  0.00    -0.506 OA
ATOM     67  HH  GLY A   6      25.886  10.056  47.916  0.00  0.00    +0.292 HD
ENDBRANCH  63  66
ENDBRANCH  59  60
ENDBRANCH  11  59
ENDBRANCH   9  11
ENDBRANCH   6   7
ENDBRANCH   4   6
ENDBRANCH   1   2
BRANCH   1  68
ATOM     68  C   SER A   8      30.655  17.564  58.915  0.00  0.00    +0.242 C 
ATOM     69  O   SER A   8      31.744  17.229  59.380  0.00  0.00    -0.273 OA
ATOM     70  N   GLY A   9      30.429  18.745  58.356  0.00  0.00    -0.297 N 
ATOM     71  H   GLY A   9      29.484  18.932  57.963  0.00  0.00    +0.150 HD
BRANCH  70  72
ATOM     72  CA  GLY A   9      31.431  19.790  58.264  0.00  0.00    +0.149 C 
ATOM     73  CB  GLY A   9      31.903  20.182  59.663  0.00  0.00    +0.031 C 
BRANCH  72  74
ATOM     74  C   GLY A   9      32.616  19.450  57.346  0.00  0.00    +0.241 C 
ATOM     75  O   GLY A   9      33.660  20.098  57.404  0.00  0.00    -0.273 OA
ATOM     76  N   GLY A  10      32.460  18.452  56.486  0.00  0.00    -0.298 N 
ATOM     77  H   GLY A  10      31.570  17.914  56.463  0.00  0.00    +0.150 HD
BRANCH  76  78
ATOM     78  CA  GLY A  10      33.552  18.114  55.568  0.00  0.00    +0.137 C 
BRANCH  78  79
ATOM     79  C   GLY A  10      33.527  19.060  54.372  0.00  0.00    +0.227 C 
ATOM     80  O   GLY A  10      32.451  19.411  53.874  0.00  0.00    -0.286 OA
ENDBRANCH  78  79
BRANCH  78  81
ATOM     81  CB  GLY A  10      33.426  16.674  55.079  0.00  0.00    +0.039 C 
BRANCH  81  82
ATOM     82  CG  GLY A  10      33.507  15.659  56.195  0.00  0.00    +0.116 C 
BRANCH  82  83
ATOM     83  CD  GLY A  10      33.417  14.234  55.706  0.00  0.00    +0.365 C 
ATOM     84  OE2 GLY A  10      33.730  13.333  56.510  0.00  0.00    -0.246 OA
ATOM     85  OE1 GLY A  10      33.029  14.005  54.533  0.00  0.00    -0.246 OA
ENDBRANCH  82  83
ENDBRANCH  81  82
ENDBRANCH  78  81
ENDBRANCH  76  78
ENDBRANCH  72  74
ENDBRANCH  70  72
ENDBRANCH   1  68
BRANCH   1  86
ATOM     86  CB  SER A   8      29.039  16.414  60.389  0.00  0.00    +0.098 C 
BRANCH  86  87
ATOM     87  SG  SER A   8      27.699  15.217  60.580  0.00  0.00    -0.080 S 
BRANCH  87  88
ATOM     88  SG  TRP A   4      27.387  15.194  62.583  0.00  0.00    -0.080 S 
BRANCH  88  89
ATOM     89  CB  TRP A   4      26.294  16.615  62.860  0.00  0.00    +0.098 C 
BRANCH  89  90
ATOM     90  CA  TRP A   4      25.026  16.630  62.002  0.00  0.00    +0.160 C 
BRANCH  90  92
ATOM     91  C   SER A   3      25.028  18.877  61.093  0.00  0.00    +0.243 C 
ATOM     92  N   TRP A   4      24.519  17.996  61.949  0.00  0.00    -0.296 N 
ATOM     93  H   TRP A   4      23.751  18.284  62.588  0.00  0.00    +0.150 HD
ATOM     94  O   SER A   3      25.909  18.564  60.284  0.00  0.00    -0.273 OA
BRANCH  91  95
ATOM     95  CA  SER A   3      24.471  20.314  61.120  0.00  0.00    +0.178 C 
BRANCH  95  98
ATOM     96  C   VAL A   2      26.504  21.542  60.675  0.00  0.00    +0.241 C 
ATOM     97  O   VAL A   2      26.791  21.566  61.876  0.00  0.00    -0.273 OA
ATOM     98  N   SER A   3      25.358  21.046  60.227  0.00  0.00    -0.295 N 
ATOM     99  H   SER A   3      25.091  21.181  59.231  0.00  0.00    +0.150 HD
BRANCH  96 100
ATOM    100  CA  VAL A   2      27.427  22.187  59.637  0.00  0.00    +0.160 C 
BRANCH 100 102
ATOM    101  C   VAL A   1      29.326  23.681  59.526  0.00  0.00    +0.238 C 
ATOM    102  N   VAL A   2      28.489  22.971  60.282  0.00  0.00    -0.297 N 
ATOM    103  H   VAL A   2      28.587  22.972  61.317  0.00  0.00    +0.150 HD
ATOM    104  O   VAL A   1      29.180  23.805  58.307  0.00  0.00    -0.274 OA
BRANCH 101 105
ATOM    105  CA  VAL A   1      30.445  24.421  60.222  0.00  0.00    +0.145 C 
BRANCH 105 106
ATOM    106  N   VAL A   1      31.685  24.005  59.567  0.00  0.00    -0.238 NA
ATOM    107  H   VAL A   1      31.702  23.919  58.531  0.00  0.00    +0.142 HD
ENDBRANCH 105 106
BRANCH 105 108
ATOM    108  CB  VAL A   1      30.241  25.930  60.046  0.00  0.00    +0.026 C 
BRANCH 108 109
ATOM    109  CG  VAL A   1      31.294  26.790  60.720  0.00  0.00    -0.000 C 
BRANCH 109 110
ATOM    110  CD  VAL A   1      31.136  28.242  60.327  0.00  0.00    -0.024 C 
BRANCH 110 111
ATOM    111  CE  VAL A   1      32.146  29.125  61.042  0.00  0.00    -0.086 C 
BRANCH 111 112
ATOM    112  NZ  VAL A   1      31.978  30.575  60.672  0.00  0.00    +0.380 N 
ATOM    113  HZ1 VAL A   1      32.684  31.145  61.180  0.00  0.00    -0.089 HD
ATOM    114  HZ2 VAL A   1      31.022  30.890  60.935  0.00  0.00    -0.089 HD
ATOM    115  HZ3 VAL A   1      32.112  30.688  59.647  0.00  0.00    -0.089 HD
ENDBRANCH 111 112
ENDBRANCH 110 111
ENDBRANCH 109 110
ENDBRANCH 108 109
ENDBRANCH 105 108
ENDBRANCH 101 105
ENDBRANCH 100 102
BRANCH 100 116
ATOM    116  CB  VAL A   2      28.134  21.081  58.827  0.00  0.00    +0.143 C 
BRANCH 116 117
ATOM    117  CG  VAL A   2      27.227  20.339  57.856  0.00  0.00    +0.367 C 
ATOM    118  OD2 VAL A   2      26.056  20.720  57.633  0.00  0.00    -0.246 OA
ATOM    119  OD1 VAL A   2      27.727  19.342  57.291  0.00  0.00    -0.246 OA
ENDBRANCH 116 117
ENDBRANCH 100 116
ENDBRANCH  96 100
ENDBRANCH  95  98
BRANCH  95 120
ATOM    120  CB  SER A   3      23.023  20.355  60.613  0.00  0.00    +0.166 C 
BRANCH 120 121
ATOM    121  OG  SER A   3      22.957  19.912  59.278  0.00  0.00    -0.380 OA
ATOM    122  H   SER A   3      23.515  20.499  58.709  0.00  0.00    +0.211 HD
ENDBRANCH 120 121
ENDBRANCH  95 120
ENDBRANCH  91  95
ENDBRANCH  90  92
BRANCH  90 123
ATOM    123  C   TRP A   4      23.948  15.698  62.564  0.00  0.00    +0.242 C 
ATOM    124  O   TRP A   4      22.854  16.165  62.907  0.00  0.00    -0.273 OA
ATOM    125  N   GLN A   5      24.221  14.395  62.645  0.00  0.00    -0.297 N 
ATOM    126  H   GLN A   5      25.149  14.040  62.339  0.00  0.00    +0.150 HD
BRANCH 125 127
ATOM    127  CA  GLN A   5      23.209  13.456  63.168  0.00  0.00    +0.149 C 
BRANCH 127 128
ATOM    128  C   GLN A   5      22.739  13.868  64.558  0.00  0.00    +0.241 C 
ATOM    129  O   GLN A   5      23.542  14.288  65.393  0.00  0.00    -0.273 OA
ATOM    130  N   GLY A   6      21.435  13.769  64.792  0.00  0.00    -0.295 N 
ATOM    131  H   GLY A   6      20.807  13.376  64.062  0.00  0.00    +0.150 HD
BRANCH 130 132
ATOM    132  CA  GLY A   6      20.880  14.206  66.061  0.00  0.00    +0.176 C 
BRANCH 132 133
ATOM    133  C   GLY A   6      20.234  15.577  65.869  0.00  0.00    +0.243 C 
ATOM    134  O   GLY A   6      19.382  15.985  66.665  0.00  0.00    -0.273 OA
ATOM    135  N   ASP A   7      20.685  16.322  64.857  0.00  0.00    -0.296 N 
ATOM    136  H   ASP A   7      21.480  15.969  64.287  0.00  0.00    +0.150 HD
BRANCH 135 137
ATOM    137  CA  ASP A   7      20.093  17.625  64.523  0.00  0.00    +0.160 C 
BRANCH 137 138
ATOM    138  C   ASP A   7      18.932  17.384  63.545  0.00  0.00    +0.241 C 
ATOM    139  O   ASP A   7      18.073  18.256  63.356  0.00  0.00    -0.273 OA
ATOM    140  N   SER A   8      18.953  16.217  62.901  0.00  0.00    -0.295 N 
ATOM    141  H   SER A   8      19.733  15.560  63.105  0.00  0.00    +0.150 HD
BRANCH 140 142
ATOM    142  CA  SER A   8      17.943  15.804  61.924  0.00  0.00    +0.178 C 
BRANCH 142 143
ATOM    143  C   SER A   8      16.517  16.139  62.361  0.00  0.00    +0.243 C 
ATOM    144  O   SER A   8      16.150  15.927  63.521  0.00  0.00    -0.273 OA
ATOM    145  N   GLY A   9      15.734  16.671  61.424  0.00  0.00    -0.295 N 
ATOM    146  H   GLY A   9      16.122  16.821  60.471  0.00  0.00    +0.150 HD
BRANCH 145 147
ATOM    147  CA  GLY A   9      14.356  17.049  61.688  0.00  0.00    +0.176 C 
BRANCH 147 148
ATOM    148  C   GLY A   9      14.221  18.460  62.216  0.00  0.00    +0.243 C 
ATOM    149  N   GLY A  10      15.346  19.036  62.647  0.00  0.00    -0.296 N 
ATOM    150  H   GLY A  10      16.238  18.505  62.580  0.00  0.00    +0.150 HD
ATOM    151  O   GLY A   9      13.125  19.015  62.226  0.00  0.00    -0.273 OA
BRANCH 149 152
ATOM    152  CA  GLY A  10      15.370  20.375  63.205  0.00  0.00    +0.163 C 
BRANCH 152 153
ATOM    153  C   GLY A  10      15.132  21.526  62.255  0.00  0.00    +0.229 C 
ATOM    154  O   GLY A  10      15.117  21.346  61.033  0.00  0.00    -0.286 OA
ENDBRANCH 152 153
ENDBRANCH 149 152
ENDBRANCH 147 148
ENDBRANCH 145 147
ENDBRANCH 142 143
BRANCH 142 155
ATOM    155  CB  SER A   8      18.067  14.299  61.688  0.00  0.00    +0.166 C 
BRANCH 155 156
ATOM    156  OG  SER A   8      19.430  13.947  61.579  0.00  0.00    -0.380 OA
ATOM    157  H   SER A   8      19.507  12.972  61.426  0.00  0.00    +0.211 HD
ENDBRANCH 155 156
ENDBRANCH 142 155
ENDBRANCH 140 142
ENDBRANCH 137 138
BRANCH 137 158
ATOM    158  CB  ASP A   7      21.107  18.560  63.835  0.00  0.00    +0.143 C 
BRANCH 158 159
ATOM    159  CG  ASP A   7      22.211  19.026  64.769  0.00  0.00    +0.367 C 
ATOM    160  OD2 ASP A   7      21.938  19.266  65.961  0.00  0.00    -0.246 OA
ATOM    161  OD1 ASP A   7      23.358  19.159  64.309  0.00  0.00    -0.246 OA
ENDBRANCH 158 159
ENDBRANCH 137 158
ENDBRANCH 135 137
ENDBRANCH 132 133
ENDBRANCH 130 132
ENDBRANCH 127 128
BRANCH 127 162
ATOM    162  CB  GLN A   5      23.718  12.005  63.168  0.00  0.00    +0.039 C 
BRANCH 162 163
ATOM    163  CG  GLN A   5      24.971  11.756  63.978  0.00  0.00    +0.087 C 
BRANCH 163 164
ATOM    164  CD  GLN A   5      25.415  10.316  63.880  0.00  0.00    +0.219 C 
ATOM    165  NE2 GLN A   5      26.668  10.062  64.218  0.00  0.00    -0.329 N 
ATOM    166 HE21 GLN A   5      27.290  10.836  64.527  0.00  0.00    +0.145 HD
ATOM    167 HE22 GLN A   5      27.031   9.088  64.175  0.00  0.00    +0.145 HD
ATOM    168  OE1 GLN A   5      24.631   9.435  63.506  0.00  0.00    -0.275 OA
ENDBRANCH 163 164
ENDBRANCH 162 163
ENDBRANCH 127 162
ENDBRANCH 125 127
ENDBRANCH  90 123
ENDBRANCH  89  90
ENDBRANCH  88  89
ENDBRANCH  87  88
ENDBRANCH  86  87
ENDBRANCH   1  86
TORSDOF 73
REMARK  Name = ../refined-set-2016/1utj/1utj_pocket.pdb
REMARK  106 active torsions:
REMARK  status: ('A' for Active; 'I' for Inactive)
REMARK    1  A    between atoms: _1  and  _3
REMARK    2  A    between atoms: _3  and  _4
REMARK    3  A    between atoms: _3  and  _6
REMARK    4  A    between atoms: _9  and  _11
REMARK    5  A    between atoms: _11  and  _12
REMARK    6  A    between atoms: _11  and  _14
REMARK    7  A    between atoms: _14  and  _15
REMARK    8  A    between atoms: _20  and  _22
REMARK    9  A    between atoms: _22  and  _23
REMARK   10  A    between atoms: _22  and  _25
REMARK   11  A    between atoms: _25  and  _26
REMARK   12  A    between atoms: _31  and  _33
REMARK   13  A    between atoms: _33  and  _34
REMARK   14  A    between atoms: _33  and  _36
REMARK   15  A    between atoms: _36  and  _37
REMARK   16  A    between atoms: _42  and  _43
REMARK   17  A    between atoms: _45  and  _47
REMARK   18  A    between atoms: _47  and  _48
REMARK   19  A    between atoms: _51  and  _53
REMARK   20  A    between atoms: _53  and  _54
REMARK   21  A    between atoms: _53  and  _56
REMARK   22  A    between atoms: _56  and  _57
REMARK   23  A    between atoms: _57  and  _58
REMARK   24  A    between atoms: _58  and  _59
REMARK   25  A    between atoms: _59  and  _60
REMARK   26  A    between atoms: _64  and  _66
REMARK   27  A    between atoms: _66  and  _67
REMARK   28  A    between atoms: _66  and  _69
REMARK   29  A    between atoms: _69  and  _70
REMARK   30  A    between atoms: _73  and  _75
REMARK   31  A    between atoms: _75  and  _76
REMARK   32  A    between atoms: _75  and  _78
REMARK   33  A    between atoms: _78  and  _79
REMARK   34  A    between atoms: _81  and  _83
REMARK   35  A    between atoms: _83  and  _84
REMARK   36  A    between atoms: _83  and  _86
REMARK   37  A    between atoms: _86  and  _87
REMARK   38  A    between atoms: _87  and  _202
REMARK   39  A    between atoms: _88  and  _90
REMARK   40  A    between atoms: _90  and  _91
REMARK   41  A    between atoms: _90  and  _93
REMARK   42  A    between atoms: _93  and  _94
REMARK   43  A    between atoms: _94  and  _95
REMARK   44  A    between atoms: _100  and  _102
REMARK   45  A    between atoms: _102  and  _103
REMARK   46  A    between atoms: _105  and  _107
REMARK   47  A    between atoms: _107  and  _108
REMARK   48  A    between atoms: _107  and  _110
REMARK   49  A    between atoms: _110  and  _111
REMARK   50  A    between atoms: _114  and  _116
REMARK   51  A    between atoms: _116  and  _117
REMARK   52  A    between atoms: _116  and  _119
REMARK   53  A    between atoms: _119  and  _120
REMARK   54  A    between atoms: _122  and  _124
REMARK   55  A    between atoms: _124  and  _125
REMARK   56  A    between atoms: _127  and  _129
REMARK   57  A    between atoms: _129  and  _130
REMARK   58  A    between atoms: _132  and  _134
REMARK   59  A    between atoms: _134  and  _135
REMARK   60  A    between atoms: _134  and  _137
REMARK   61  A    between atoms: _140  and  _142
REMARK   62  A    between atoms: _142  and  _143
REMARK   63  A    between atoms: _142  and  _145
REMARK   64  A    between atoms: _148  and  _150
REMARK   65  A    between atoms: _150  and  _151
REMARK   66  A    between atoms: _150  and  _153
REMARK   67  A    between atoms: _153  and  _154
REMARK   68  A    between atoms: _156  and  _158
REMARK   69  A    between atoms: _158  and  _159
REMARK   70  A    between atoms: _158  and  _161
REMARK   71  A    between atoms: _161  and  _162
REMARK   72  A    between atoms: _172  and  _174
REMARK   73  A    between atoms: _174  and  _175
REMARK   74  A    between atoms: _177  and  _179
REMARK   75  A    between atoms: _179  and  _180
REMARK   76  A    between atoms: _179  and  _182
REMARK   77  A    between atoms: _182  and  _183
REMARK   78  A    between atoms: _188  and  _189
REMARK   79  A    between atoms: _191  and  _193
REMARK   80  A    between atoms: _193  and  _194
REMARK   81  A    between atoms: _196  and  _198
REMARK   82  A    between atoms: _198  and  _199
REMARK   83  A    between atoms: _198  and  _201
REMARK   84  A    between atoms: _201  and  _202
REMARK   85  A    between atoms: _203  and  _205
REMARK   86  A    between atoms: _205  and  _206
REMARK   87  A    between atoms: _209  and  _211
REMARK   88  A    between atoms: _211  and  _212
REMARK   89  A    between atoms: _211  and  _214
REMARK   90  A    between atoms: _214  and  _215
REMARK   91  A    between atoms: _215  and  _216
REMARK   92  A    between atoms: _219  and  _221
REMARK   93  A    between atoms: _221  and  _222
REMARK   94  A    between atoms: _221  and  _224
REMARK   95  A    between atoms: _224  and  _225
REMARK   96  A    between atoms: _231  and  _232
REMARK   97  A    between atoms: _237  and  _239
REMARK   98  A    between atoms: _239  and  _240
REMARK   99  A    between atoms: _242  and  _244
REMARK  100  A    between atoms: _244  and  _245
REMARK  101  A    between atoms: _244  and  _247
REMARK  102  A    between atoms: _250  and  _252
REMARK  103  A    between atoms: _252  and  _253
REMARK  104  A    between atoms: _252  and  _255
REMARK  105  A    between atoms: _255  and  _256
REMARK  106  A    between atoms: _261  and  _262
REMARK                            x       y       z     vdW  Elec       q    Type
REMARK                         _______ _______ _______ _____ _____    ______ ____
ROOT
ATOM      1  C   GLY A   3      23.063  20.060  53.521  0.00  0.00    +0.243 C 
ATOM      2  N   VAL A   4      22.158  19.084  53.506  0.00  0.00    -0.297 N 
ATOM      3  H   VAL A   4      22.269  18.290  54.168  0.00  0.00    +0.150 HD
ATOM      4  O   GLY A   3      23.050  21.015  52.735  0.00  0.00    -0.273 OA
ENDROOT
BRANCH   1   5
ATOM      5  CA  GLY A   3      24.177  19.930  54.544  0.00  0.00    +0.176 C 
BRANCH   5   7
ATOM      6  C   PRO A   2      26.078  20.073  53.067  0.00  0.00    +0.241 C 
ATOM      7  N   GLY A   3      25.378  20.594  54.069  0.00  0.00    -0.295 N 
ATOM      8  H   GLY A   3      25.691  21.480  54.514  0.00  0.00    +0.150 HD
ATOM      9  O   PRO A   2      25.766  19.028  52.515  0.00  0.00    -0.273 OA
BRANCH   6  13
ATOM     10  C   ASN A   1      28.981  19.039  52.365  0.00  0.00    +0.242 C 
ATOM     11  O   ASN A   1      28.912  18.755  53.571  0.00  0.00    -0.273 OA
ATOM     12  N   PRO A   2      28.235  20.020  51.822  0.00  0.00    -0.272 N 
ATOM     13  CA  PRO A   2      27.317  20.842  52.622  0.00  0.00    +0.152 C 
ATOM     14  CB  PRO A   2      26.941  21.959  51.653  0.00  0.00    +0.031 C 
ATOM     15  CG  PRO A   2      26.891  21.229  50.333  0.00  0.00    +0.024 C 
ATOM     16  CD  PRO A   2      28.139  20.369  50.387  0.00  0.00    +0.094 C 
BRANCH  10  17
ATOM     17  CA  ASN A   1      29.916  18.243  51.431  0.00  0.00    +0.154 C 
BRANCH  17  18
ATOM     18  N   ASN A   1      31.116  19.012  51.068  0.00  0.00    -0.238 NA
ATOM     19  H   ASN A   1      31.699  19.415  51.829  0.00  0.00    +0.142 HD
ENDBRANCH  17  18
BRANCH  17  20
ATOM     20  CB  ASN A   1      30.315  16.946  52.155  0.00  0.00    +0.111 C 
BRANCH  20  21
ATOM     21  CG  ASN A   1      31.056  15.967  51.268  0.00  0.00    +0.221 C 
ATOM     22  OD1 ASN A   1      32.085  15.422  51.659  0.00  0.00    -0.275 OA
ATOM     23  ND2 ASN A   1      30.505  15.683  50.116  0.00  0.00    -0.329 N 
ATOM     24 HD21 ASN A   1      29.633  16.168  49.823  0.00  0.00    +0.145 HD
ATOM     25 HD22 ASN A   1      30.939  14.972  49.493  0.00  0.00    +0.145 HD
ENDBRANCH  20  21
ENDBRANCH  17  20
ENDBRANCH  10  17
ENDBRANCH   6  13
ENDBRANCH   5   7
ENDBRANCH   1   5
BRANCH   2  26
ATOM     26  CA  VAL A   4      21.018  19.084  52.598  0.00  0.00    +0.149 C 
BRANCH  26  27
ATOM     27  C   VAL A   4      19.786  19.174  53.477  0.00  0.00    +0.241 C 
ATOM     28  O   VAL A   4      19.656  18.441  54.461  0.00  0.00    -0.273 OA
ATOM     29  N   TYR A   5      18.878  20.068  53.106  0.00  0.00    -0.298 N 
ATOM     30  H   TYR A   5      19.029  20.594  52.222  0.00  0.00    +0.150 HD
BRANCH  29  31
ATOM     31  CA  TYR A   5      17.682  20.342  53.883  0.00  0.00    +0.141 C 
BRANCH  31  32
ATOM     32  C   TYR A   5      16.406  20.188  53.070  0.00  0.00    +0.227 C 
ATOM     33  O   TYR A   5      16.429  20.355  51.856  0.00  0.00    -0.286 OA
ENDBRANCH  31  32
BRANCH  31  34
ATOM     34  CB  TYR A   5      17.794  21.773  54.408  0.00  0.00    +0.054 C 
BRANCH  34  35
ATOM     35  CG  TYR A   5      19.027  21.969  55.268  0.00  0.00    -0.020 A 
ATOM     36  CD2 TYR A   5      18.964  21.754  56.647  0.00  0.00    -0.001 A 
ATOM     37  CE2 TYR A   5      20.096  21.844  57.449  0.00  0.00    +0.036 A 
ATOM     38  CZ  TYR A   5      21.316  22.153  56.879  0.00  0.00    +0.134 A 
ATOM     39  CE1 TYR A   5      21.425  22.385  55.507  0.00  0.00    +0.036 A 
ATOM     40  CD1 TYR A   5      20.273  22.293  54.703  0.00  0.00    -0.001 A 
BRANCH  38  41
ATOM     41  OH  TYR A   5      22.410  22.200  57.698  0.00  0.00    -0.506 OA
ATOM     42  HH  TYR A   5      22.817  23.101  57.651  0.00  0.00    +0.292 HD
ENDBRANCH  38  41
ENDBRANCH  34  35
ENDBRANCH  31  34
ENDBRANCH  29  31
ENDBRANCH  26  27
BRANCH  26  43
ATOM     43  CB  VAL A   4      20.944  17.812  51.733  0.00  0.00    +0.027 C 
ATOM     44  CG2 VAL A   4      22.264  17.623  50.972  0.00  0.00    +0.002 C 
ATOM     45  CG1 VAL A   4      19.772  17.931  50.733  0.00  0.00    +0.002 C 
ENDBRANCH  26  43
ENDBRANCH   2  26
TORSDOF 15
REMARK  Name = ../refined-set-2016/1utj/1utj_pocket.pdb
REMARK  106 active torsions:
REMARK  status: ('A' for Active; 'I' for Inactive)
REMARK    1  A    between atoms: _1  and  _3
REMARK    2  A    between atoms: _3  and  _4
REMARK    3  A    between atoms: _3  and  _6
REMARK    4  A    between atoms: _9  and  _11
REMARK    5  A    between atoms: _11  and  _12
REMARK    6  A    between atoms: _11  and  _14
REMARK    7  A    between atoms: _14  and  _15
REMARK    8  A    between atoms: _20  and  _22
REMARK    9  A    between atoms: _22  and  _23
REMARK   10  A    between atoms: _22  and  _25
REMARK   11  A    between atoms: _25  and  _26
REMARK   12  A    between atoms: _31  and  _33
REMARK   13  A    between atoms: _33  and  _34
REMARK   14  A    between atoms: _33  and  _36
REMARK   15  A    between atoms: _36  and  _37
REMARK   16  A    between atoms: _42  and  _43
REMARK   17  A    between atoms: _45  and  _47
REMARK   18  A    between atoms: _47  and  _48
REMARK   19  A    between atoms: _51  and  _53
REMARK   20  A    between atoms: _53  and  _54
REMARK   21  A    between atoms: _53  and  _56
REMARK   22  A    between atoms: _56  and  _57
REMARK   23  A    between atoms: _57  and  _58
REMARK   24  A    between atoms: _58  and  _59
REMARK   25  A    between atoms: _59  and  _60
REMARK   26  A    between atoms: _64  and  _66
REMARK   27  A    between atoms: _66  and  _67
REMARK   28  A    between atoms: _66  and  _69
REMARK   29  A    between atoms: _69  and  _70
REMARK   30  A    between atoms: _73  and  _75
REMARK   31  A    between atoms: _75  and  _76
REMARK   32  A    between atoms: _75  and  _78
REMARK   33  A    between atoms: _78  and  _79
REMARK   34  A    between atoms: _81  and  _83
REMARK   35  A    between atoms: _83  and  _84
REMARK   36  A    between atoms: _83  and  _86
REMARK   37  A    between atoms: _86  and  _87
REMARK   38  A    between atoms: _87  and  _202
REMARK   39  A    between atoms: _88  and  _90
REMARK   40  A    between atoms: _90  and  _91
REMARK   41  A    between atoms: _90  and  _93
REMARK   42  A    between atoms: _93  and  _94
REMARK   43  A    between atoms: _94  and  _95
REMARK   44  A    between atoms: _100  and  _102
REMARK   45  A    between atoms: _102  and  _103
REMARK   46  A    between atoms: _105  and  _107
REMARK   47  A    between atoms: _107  and  _108
REMARK   48  A    between atoms: _107  and  _110
REMARK   49  A    between atoms: _110  and  _111
REMARK   50  A    between atoms: _114  and  _116
REMARK   51  A    between atoms: _116  and  _117
REMARK   52  A    between atoms: _116  and  _119
REMARK   53  A    between atoms: _119  and  _120
REMARK   54  A    between atoms: _122  and  _124
REMARK   55  A    between atoms: _124  and  _125
REMARK   56  A    between atoms: _127  and  _129
REMARK   57  A    between atoms: _129  and  _130
REMARK   58  A    between atoms: _132  and  _134
REMARK   59  A    between atoms: _134  and  _135
REMARK   60  A    between atoms: _134  and  _137
REMARK   61  A    between atoms: _140  and  _142
REMARK   62  A    between atoms: _142  and  _143
REMARK   63  A    between atoms: _142  and  _145
REMARK   64  A    between atoms: _148  and  _150
REMARK   65  A    between atoms: _150  and  _151
REMARK   66  A    between atoms: _150  and  _153
REMARK   67  A    between atoms: _153  and  _154
REMARK   68  A    between atoms: _156  and  _158
REMARK   69  A    between atoms: _158  and  _159
REMARK   70  A    between atoms: _158  and  _161
REMARK   71  A    between atoms: _161  and  _162
REMARK   72  A    between atoms: _172  and  _174
REMARK   73  A    between atoms: _174  and  _175
REMARK   74  A    between atoms: _177  and  _179
REMARK   75  A    between atoms: _179  and  _180
REMARK   76  A    between atoms: _179  and  _182
REMARK   77  A    between atoms: _182  and  _183
REMARK   78  A    between atoms: _188  and  _189
REMARK   79  A    between atoms: _191  and  _193
REMARK   80  A    between atoms: _193  and  _194
REMARK   81  A    between atoms: _196  and  _198
REMARK   82  A    between atoms: _198  and  _199
REMARK   83  A    between atoms: _198  and  _201
REMARK   84  A    between atoms: _201  and  _202
REMARK   85  A    between atoms: _203  and  _205
REMARK   86  A    between atoms: _205  and  _206
REMARK   87  A    between atoms: _209  and  _211
REMARK   88  A    between atoms: _211  and  _212
REMARK   89  A    between atoms: _211  and  _214
REMARK   90  A    between atoms: _214  and  _215
REMARK   91  A    between atoms: _215  and  _216
REMARK   92  A    between atoms: _219  and  _221
REMARK   93  A    between atoms: _221  and  _222
REMARK   94  A    between atoms: _221  and  _224
REMARK   95  A    between atoms: _224  and  _225
REMARK   96  A    between atoms: _231  and  _232
REMARK   97  A    between atoms: _237  and  _239
REMARK   98  A    between atoms: _239  and  _240
REMARK   99  A    between atoms: _242  and  _244
REMARK  100  A    between atoms: _244  and  _245
REMARK  101  A    between atoms: _244  and  _247
REMARK  102  A    between atoms: _250  and  _252
REMARK  103  A    between atoms: _252  and  _253
REMARK  104  A    between atoms: _252  and  _255
REMARK  105  A    between atoms: _255  and  _256
REMARK  106  A    between atoms: _261  and  _262
REMARK                            x       y       z     vdW  Elec       q    Type
REMARK                         _______ _______ _______ _____ _____    ______ ____
ROOT
ATOM      1  O   HOH     1      17.633  10.547  62.286  0.00  0.00    +0.000 OA
ENDROOT
TORSDOF 0
REMARK  Name = ../refined-set-2016/1utj/1utj_pocket.pdb
REMARK  106 active torsions:
REMARK  status: ('A' for Active; 'I' for Inactive)
REMARK    1  A    between atoms: _1  and  _3
REMARK    2  A    between atoms: _3  and  _4
REMARK    3  A    between atoms: _3  and  _6
REMARK    4  A    between atoms: _9  and  _11
REMARK    5  A    between atoms: _11  and  _12
REMARK    6  A    between atoms: _11  and  _14
REMARK    7  A    between atoms: _14  and  _15
REMARK    8  A    between atoms: _20  and  _22
REMARK    9  A    between atoms: _22  and  _23
REMARK   10  A    between atoms: _22  and  _25
REMARK   11  A    between atoms: _25  and  _26
REMARK   12  A    between atoms: _31  and  _33
REMARK   13  A    between atoms: _33  and  _34
REMARK   14  A    between atoms: _33  and  _36
REMARK   15  A    between atoms: _36  and  _37
REMARK   16  A    between atoms: _42  and  _43
REMARK   17  A    between atoms: _45  and  _47
REMARK   18  A    between atoms: _47  and  _48
REMARK   19  A    between atoms: _51  and  _53
REMARK   20  A    between atoms: _53  and  _54
REMARK   21  A    between atoms: _53  and  _56
REMARK   22  A    between atoms: _56  and  _57
REMARK   23  A    between atoms: _57  and  _58
REMARK   24  A    between atoms: _58  and  _59
REMARK   25  A    between atoms: _59  and  _60
REMARK   26  A    between atoms: _64  and  _66
REMARK   27  A    between atoms: _66  and  _67
REMARK   28  A    between atoms: _66  and  _69
REMARK   29  A    between atoms: _69  and  _70
REMARK   30  A    between atoms: _73  and  _75
REMARK   31  A    between atoms: _75  and  _76
REMARK   32  A    between atoms: _75  and  _78
REMARK   33  A    between atoms: _78  and  _79
REMARK   34  A    between atoms: _81  and  _83
REMARK   35  A    between atoms: _83  and  _84
REMARK   36  A    between atoms: _83  and  _86
REMARK   37  A    between atoms: _86  and  _87
REMARK   38  A    between atoms: _87  and  _202
REMARK   39  A    between atoms: _88  and  _90
REMARK   40  A    between atoms: _90  and  _91
REMARK   41  A    between atoms: _90  and  _93
REMARK   42  A    between atoms: _93  and  _94
REMARK   43  A    between atoms: _94  and  _95
REMARK   44  A    between atoms: _100  and  _102
REMARK   45  A    between atoms: _102  and  _103
REMARK   46  A    between atoms: _105  and  _107
REMARK   47  A    between atoms: _107  and  _108
REMARK   48  A    between atoms: _107  and  _110
REMARK   49  A    between atoms: _110  and  _111
REMARK   50  A    between atoms: _114  and  _116
REMARK   51  A    between atoms: _116  and  _117
REMARK   52  A    between atoms: _116  and  _119
REMARK   53  A    between atoms: _119  and  _120
REMARK   54  A    between atoms: _122  and  _124
REMARK   55  A    between atoms: _124  and  _125
REMARK   56  A    between atoms: _127  and  _129
REMARK   57  A    between atoms: _129  and  _130
REMARK   58  A    between atoms: _132  and  _134
REMARK   59  A    between atoms: _134  and  _135
REMARK   60  A    between atoms: _134  and  _137
REMARK   61  A    between atoms: _140  and  _142
REMARK   62  A    between atoms: _142  and  _143
REMARK   63  A    between atoms: _142  and  _145
REMARK   64  A    between atoms: _148  and  _150
REMARK   65  A    between atoms: _150  and  _151
REMARK   66  A    between atoms: _150  and  _153
REMARK   67  A    between atoms: _153  and  _154
REMARK   68  A    between atoms: _156  and  _158
REMARK   69  A    between atoms: _158  and  _159
REMARK   70  A    between atoms: _158  and  _161
REMARK   71  A    between atoms: _161  and  _162
REMARK   72  A    between atoms: _172  and  _174
REMARK   73  A    between atoms: _174  and  _175
REMARK   74  A    between atoms: _177  and  _179
REMARK   75  A    between atoms: _179  and  _180
REMARK   76  A    between atoms: _179  and  _182
REMARK   77  A    between atoms: _182  and  _183
REMARK   78  A    between atoms: _188  and  _189
REMARK   79  A    between atoms: _191  and  _193
REMARK   80  A    between atoms: _193  and  _194
REMARK   81  A    between atoms: _196  and  _198
REMARK   82  A    between atoms: _198  and  _199
REMARK   83  A    between atoms: _198  and  _201
REMARK   84  A    between atoms: _201  and  _202
REMARK   85  A    between atoms: _203  and  _205
REMARK   86  A    between atoms: _205  and  _206
REMARK   87  A    between atoms: _209  and  _211
REMARK   88  A    between atoms: _211  and  _212
REMARK   89  A    between atoms: _211  and  _214
REMARK   90  A    between atoms: _214  and  _215
REMARK   91  A    between atoms: _215  and  _216
REMARK   92  A    between atoms: _219  and  _221
REMARK   93  A    between atoms: _221  and  _222
REMARK   94  A    between atoms: _221  and  _224
REMARK   95  A    between atoms: _224  and  _225
REMARK   96  A    between atoms: _231  and  _232
REMARK   97  A    between atoms: _237  and  _239
REMARK   98  A    between atoms: _239  and  _240
REMARK   99  A    between atoms: _242  and  _244
REMARK  100  A    between atoms: _244  and  _245
REMARK  101  A    between atoms: _244  and  _247
REMARK  102  A    between atoms: _250  and  _252
REMARK  103  A    between atoms: _252  and  _253
REMARK  104  A    between atoms: _252  and  _255
REMARK  105  A    between atoms: _255  and  _256
REMARK  106  A    between atoms: _261  and  _262
REMARK                            x       y       z     vdW  Elec       q    Type
REMARK                         _______ _______ _______ _____ _____    ______ ____
ROOT
ATOM      1  O   HOH     1      29.091  12.547  63.245  0.00  0.00    +0.000 OA
ENDROOT
TORSDOF 0
REMARK  Name = ../refined-set-2016/1utj/1utj_pocket.pdb
REMARK  106 active torsions:
REMARK  status: ('A' for Active; 'I' for Inactive)
REMARK    1  A    between atoms: _1  and  _3
REMARK    2  A    between atoms: _3  and  _4
REMARK    3  A    between atoms: _3  and  _6
REMARK    4  A    between atoms: _9  and  _11
REMARK    5  A    between atoms: _11  and  _12
REMARK    6  A    between atoms: _11  and  _14
REMARK    7  A    between atoms: _14  and  _15
REMARK    8  A    between atoms: _20  and  _22
REMARK    9  A    between atoms: _22  and  _23
REMARK   10  A    between atoms: _22  and  _25
REMARK   11  A    between atoms: _25  and  _26
REMARK   12  A    between atoms: _31  and  _33
REMARK   13  A    between atoms: _33  and  _34
REMARK   14  A    between atoms: _33  and  _36
REMARK   15  A    between atoms: _36  and  _37
REMARK   16  A    between atoms: _42  and  _43
REMARK   17  A    between atoms: _45  and  _47
REMARK   18  A    between atoms: _47  and  _48
REMARK   19  A    between atoms: _51  and  _53
REMARK   20  A    between atoms: _53  and  _54
REMARK   21  A    between atoms: _53  and  _56
REMARK   22  A    between atoms: _56  and  _57
REMARK   23  A    between atoms: _57  and  _58
REMARK   24  A    between atoms: _58  and  _59
REMARK   25  A    between atoms: _59  and  _60
REMARK   26  A    between atoms: _64  and  _66
REMARK   27  A    between atoms: _66  and  _67
REMARK   28  A    between atoms: _66  and  _69
REMARK   29  A    between atoms: _69  and  _70
REMARK   30  A    between atoms: _73  and  _75
REMARK   31  A    between atoms: _75  and  _76
REMARK   32  A    between atoms: _75  and  _78
REMARK   33  A    between atoms: _78  and  _79
REMARK   34  A    between atoms: _81  and  _83
REMARK   35  A    between atoms: _83  and  _84
REMARK   36  A    between atoms: _83  and  _86
REMARK   37  A    between atoms: _86  and  _87
REMARK   38  A    between atoms: _87  and  _202
REMARK   39  A    between atoms: _88  and  _90
REMARK   40  A    between atoms: _90  and  _91
REMARK   41  A    between atoms: _90  and  _93
REMARK   42  A    between atoms: _93  and  _94
REMARK   43  A    between atoms: _94  and  _95
REMARK   44  A    between atoms: _100  and  _102
REMARK   45  A    between atoms: _102  and  _103
REMARK   46  A    between atoms: _105  and  _107
REMARK   47  A    between atoms: _107  and  _108
REMARK   48  A    between atoms: _107  and  _110
REMARK   49  A    between atoms: _110  and  _111
REMARK   50  A    between atoms: _114  and  _116
REMARK   51  A    between atoms: _116  and  _117
REMARK   52  A    between atoms: _116  and  _119
REMARK   53  A    between atoms: _119  and  _120
REMARK   54  A    between atoms: _122  and  _124
REMARK   55  A    between atoms: _124  and  _125
REMARK   56  A    between atoms: _127  and  _129
REMARK   57  A    between atoms: _129  and  _130
REMARK   58  A    between atoms: _132  and  _134
REMARK   59  A    between atoms: _134  and  _135
REMARK   60  A    between atoms: _134  and  _137
REMARK   61  A    between atoms: _140  and  _142
REMARK   62  A    between atoms: _142  and  _143
REMARK   63  A    between atoms: _142  and  _145
REMARK   64  A    between atoms: _148  and  _150
REMARK   65  A    between atoms: _150  and  _151
REMARK   66  A    between atoms: _150  and  _153
REMARK   67  A    between atoms: _153  and  _154
REMARK   68  A    between atoms: _156  and  _158
REMARK   69  A    between atoms: _158  and  _159
REMARK   70  A    between atoms: _158  and  _161
REMARK   71  A    between atoms: _161  and  _162
REMARK   72  A    between atoms: _172  and  _174
REMARK   73  A    between atoms: _174  and  _175
REMARK   74  A    between atoms: _177  and  _179
REMARK   75  A    between atoms: _179  and  _180
REMARK   76  A    between atoms: _179  and  _182
REMARK   77  A    between atoms: _182  and  _183
REMARK   78  A    between atoms: _188  and  _189
REMARK   79  A    between atoms: _191  and  _193
REMARK   80  A    between atoms: _193  and  _194
REMARK   81  A    between atoms: _196  and  _198
REMARK   82  A    between atoms: _198  and  _199
REMARK   83  A    between atoms: _198  and  _201
REMARK   84  A    between atoms: _201  and  _202
REMARK   85  A    between atoms: _203  and  _205
REMARK   86  A    between atoms: _205  and  _206
REMARK   87  A    between atoms: _209  and  _211
REMARK   88  A    between atoms: _211  and  _212
REMARK   89  A    between atoms: _211  and  _214
REMARK   90  A    between atoms: _214  and  _215
REMARK   91  A    between atoms: _215  and  _216
REMARK   92  A    between atoms: _219  and  _221
REMARK   93  A    between atoms: _221  and  _222
REMARK   94  A    between atoms: _221  and  _224
REMARK   95  A    between atoms: _224  and  _225
REMARK   96  A    between atoms: _231  and  _232
REMARK   97  A    between atoms: _237  and  _239
REMARK   98  A    between atoms: _239  and  _240
REMARK   99  A    between atoms: _242  and  _244
REMARK  100  A    between atoms: _244  and  _245
REMARK  101  A    between atoms: _244  and  _247
REMARK  102  A    between atoms: _250  and  _252
REMARK  103  A    between atoms: _252  and  _253
REMARK  104  A    between atoms: _252  and  _255
REMARK  105  A    between atoms: _255  and  _256
REMARK  106  A    between atoms: _261  and  _262
REMARK                            x       y       z     vdW  Elec       q    Type
REMARK                         _______ _______ _______ _____ _____    ______ ____
ROOT
ATOM      1  O   HOH     1      28.345  23.281  55.773  0.00  0.00    +0.000 OA
ENDROOT
TORSDOF 0
REMARK  Name = ../refined-set-2016/1utj/1utj_pocket.pdb
REMARK  106 active torsions:
REMARK  status: ('A' for Active; 'I' for Inactive)
REMARK    1  A    between atoms: _1  and  _3
REMARK    2  A    between atoms: _3  and  _4
REMARK    3  A    between atoms: _3  and  _6
REMARK    4  A    between atoms: _9  and  _11
REMARK    5  A    between atoms: _11  and  _12
REMARK    6  A    between atoms: _11  and  _14
REMARK    7  A    between atoms: _14  and  _15
REMARK    8  A    between atoms: _20  and  _22
REMARK    9  A    between atoms: _22  and  _23
REMARK   10  A    between atoms: _22  and  _25
REMARK   11  A    between atoms: _25  and  _26
REMARK   12  A    between atoms: _31  and  _33
REMARK   13  A    between atoms: _33  and  _34
REMARK   14  A    between atoms: _33  and  _36
REMARK   15  A    between atoms: _36  and  _37
REMARK   16  A    between atoms: _42  and  _43
REMARK   17  A    between atoms: _45  and  _47
REMARK   18  A    between atoms: _47  and  _48
REMARK   19  A    between atoms: _51  and  _53
REMARK   20  A    between atoms: _53  and  _54
REMARK   21  A    between atoms: _53  and  _56
REMARK   22  A    between atoms: _56  and  _57
REMARK   23  A    between atoms: _57  and  _58
REMARK   24  A    between atoms: _58  and  _59
REMARK   25  A    between atoms: _59  and  _60
REMARK   26  A    between atoms: _64  and  _66
REMARK   27  A    between atoms: _66  and  _67
REMARK   28  A    between atoms: _66  and  _69
REMARK   29  A    between atoms: _69  and  _70
REMARK   30  A    between atoms: _73  and  _75
REMARK   31  A    between atoms: _75  and  _76
REMARK   32  A    between atoms: _75  and  _78
REMARK   33  A    between atoms: _78  and  _79
REMARK   34  A    between atoms: _81  and  _83
REMARK   35  A    between atoms: _83  and  _84
REMARK   36  A    between atoms: _83  and  _86
REMARK   37  A    between atoms: _86  and  _87
REMARK   38  A    between atoms: _87  and  _202
REMARK   39  A    between atoms: _88  and  _90
REMARK   40  A    between atoms: _90  and  _91
REMARK   41  A    between atoms: _90  and  _93
REMARK   42  A    between atoms: _93  and  _94
REMARK   43  A    between atoms: _94  and  _95
REMARK   44  A    between atoms: _100  and  _102
REMARK   45  A    between atoms: _102  and  _103
REMARK   46  A    between atoms: _105  and  _107
REMARK   47  A    between atoms: _107  and  _108
REMARK   48  A    between atoms: _107  and  _110
REMARK   49  A    between atoms: _110  and  _111
REMARK   50  A    between atoms: _114  and  _116
REMARK   51  A    between atoms: _116  and  _117
REMARK   52  A    between atoms: _116  and  _119
REMARK   53  A    between atoms: _119  and  _120
REMARK   54  A    between atoms: _122  and  _124
REMARK   55  A    between atoms: _124  and  _125
REMARK   56  A    between atoms: _127  and  _129
REMARK   57  A    between atoms: _129  and  _130
REMARK   58  A    between atoms: _132  and  _134
REMARK   59  A    between atoms: _134  and  _135
REMARK   60  A    between atoms: _134  and  _137
REMARK   61  A    between atoms: _140  and  _142
REMARK   62  A    between atoms: _142  and  _143
REMARK   63  A    between atoms: _142  and  _145
REMARK   64  A    between atoms: _148  and  _150
REMARK   65  A    between atoms: _150  and  _151
REMARK   66  A    between atoms: _150  and  _153
REMARK   67  A    between atoms: _153  and  _154
REMARK   68  A    between atoms: _156  and  _158
REMARK   69  A    between atoms: _158  and  _159
REMARK   70  A    between atoms: _158  and  _161
REMARK   71  A    between atoms: _161  and  _162
REMARK   72  A    between atoms: _172  and  _174
REMARK   73  A    between atoms: _174  and  _175
REMARK   74  A    between atoms: _177  and  _179
REMARK   75  A    between atoms: _179  and  _180
REMARK   76  A    between atoms: _179  and  _182
REMARK   77  A    between atoms: _182  and  _183
REMARK   78  A    between atoms: _188  and  _189
REMARK   79  A    between atoms: _191  and  _193
REMARK   80  A    between atoms: _193  and  _194
REMARK   81  A    between atoms: _196  and  _198
REMARK   82  A    between atoms: _198  and  _199
REMARK   83  A    between atoms: _198  and  _201
REMARK   84  A    between atoms: _201  and  _202
REMARK   85  A    between atoms: _203  and  _205
REMARK   86  A    between atoms: _205  and  _206
REMARK   87  A    between atoms: _209  and  _211
REMARK   88  A    between atoms: _211  and  _212
REMARK   89  A    between atoms: _211  and  _214
REMARK   90  A    between atoms: _214  and  _215
REMARK   91  A    between atoms: _215  and  _216
REMARK   92  A    between atoms: _219  and  _221
REMARK   93  A    between atoms: _221  and  _222
REMARK   94  A    between atoms: _221  and  _224
REMARK   95  A    between atoms: _224  and  _225
REMARK   96  A    between atoms: _231  and  _232
REMARK   97  A    between atoms: _237  and  _239
REMARK   98  A    between atoms: _239  and  _240
REMARK   99  A    between atoms: _242  and  _244
REMARK  100  A    between atoms: _244  and  _245
REMARK  101  A    between atoms: _244  and  _247
REMARK  102  A    between atoms: _250  and  _252
REMARK  103  A    between atoms: _252  and  _253
REMARK  104  A    between atoms: _252  and  _255
REMARK  105  A    between atoms: _255  and  _256
REMARK  106  A    between atoms: _261  and  _262
REMARK                            x       y       z     vdW  Elec       q    Type
REMARK                         _______ _______ _______ _____ _____    ______ ____
ROOT
ATOM      1  O   HOH     1      19.178  11.907  64.088  0.00  0.00    +0.000 OA
ENDROOT
TORSDOF 0
REMARK  Name = ../refined-set-2016/1utj/1utj_pocket.pdb
REMARK  106 active torsions:
REMARK  status: ('A' for Active; 'I' for Inactive)
REMARK    1  A    between atoms: _1  and  _3
REMARK    2  A    between atoms: _3  and  _4
REMARK    3  A    between atoms: _3  and  _6
REMARK    4  A    between atoms: _9  and  _11
REMARK    5  A    between atoms: _11  and  _12
REMARK    6  A    between atoms: _11  and  _14
REMARK    7  A    between atoms: _14  and  _15
REMARK    8  A    between atoms: _20  and  _22
REMARK    9  A    between atoms: _22  and  _23
REMARK   10  A    between atoms: _22  and  _25
REMARK   11  A    between atoms: _25  and  _26
REMARK   12  A    between atoms: _31  and  _33
REMARK   13  A    between atoms: _33  and  _34
REMARK   14  A    between atoms: _33  and  _36
REMARK   15  A    between atoms: _36  and  _37
REMARK   16  A    between atoms: _42  and  _43
REMARK   17  A    between atoms: _45  and  _47
REMARK   18  A    between atoms: _47  and  _48
REMARK   19  A    between atoms: _51  and  _53
REMARK   20  A    between atoms: _53  and  _54
REMARK   21  A    between atoms: _53  and  _56
REMARK   22  A    between atoms: _56  and  _57
REMARK   23  A    between atoms: _57  and  _58
REMARK   24  A    between atoms: _58  and  _59
REMARK   25  A    between atoms: _59  and  _60
REMARK   26  A    between atoms: _64  and  _66
REMARK   27  A    between atoms: _66  and  _67
REMARK   28  A    between atoms: _66  and  _69
REMARK   29  A    between atoms: _69  and  _70
REMARK   30  A    between atoms: _73  and  _75
REMARK   31  A    between atoms: _75  and  _76
REMARK   32  A    between atoms: _75  and  _78
REMARK   33  A    between atoms: _78  and  _79
REMARK   34  A    between atoms: _81  and  _83
REMARK   35  A    between atoms: _83  and  _84
REMARK   36  A    between atoms: _83  and  _86
REMARK   37  A    between atoms: _86  and  _87
REMARK   38  A    between atoms: _87  and  _202
REMARK   39  A    between atoms: _88  and  _90
REMARK   40  A    between atoms: _90  and  _91
REMARK   41  A    between atoms: _90  and  _93
REMARK   42  A    between atoms: _93  and  _94
REMARK   43  A    between atoms: _94  and  _95
REMARK   44  A    between atoms: _100  and  _102
REMARK   45  A    between atoms: _102  and  _103
REMARK   46  A    between atoms: _105  and  _107
REMARK   47  A    between atoms: _107  and  _108
REMARK   48  A    between atoms: _107  and  _110
REMARK   49  A    between atoms: _110  and  _111
REMARK   50  A    between atoms: _114  and  _116
REMARK   51  A    between atoms: _116  and  _117
REMARK   52  A    between atoms: _116  and  _119
REMARK   53  A    between atoms: _119  and  _120
REMARK   54  A    between atoms: _122  and  _124
REMARK   55  A    between atoms: _124  and  _125
REMARK   56  A    between atoms: _127  and  _129
REMARK   57  A    between atoms: _129  and  _130
REMARK   58  A    between atoms: _132  and  _134
REMARK   59  A    between atoms: _134  and  _135
REMARK   60  A    between atoms: _134  and  _137
REMARK   61  A    between atoms: _140  and  _142
REMARK   62  A    between atoms: _142  and  _143
REMARK   63  A    between atoms: _142  and  _145
REMARK   64  A    between atoms: _148  and  _150
REMARK   65  A    between atoms: _150  and  _151
REMARK   66  A    between atoms: _150  and  _153
REMARK   67  A    between atoms: _153  and  _154
REMARK   68  A    between atoms: _156  and  _158
REMARK   69  A    between atoms: _158  and  _159
REMARK   70  A    between atoms: _158  and  _161
REMARK   71  A    between atoms: _161  and  _162
REMARK   72  A    between atoms: _172  and  _174
REMARK   73  A    between atoms: _174  and  _175
REMARK   74  A    between atoms: _177  and  _179
REMARK   75  A    between atoms: _179  and  _180
REMARK   76  A    between atoms: _179  and  _182
REMARK   77  A    between atoms: _182  and  _183
REMARK   78  A    between atoms: _188  and  _189
REMARK   79  A    between atoms: _191  and  _193
REMARK   80  A    between atoms: _193  and  _194
REMARK   81  A    between atoms: _196  and  _198
REMARK   82  A    between atoms: _198  and  _199
REMARK   83  A    between atoms: _198  and  _201
REMARK   84  A    between atoms: _201  and  _202
REMARK   85  A    between atoms: _203  and  _205
REMARK   86  A    between atoms: _205  and  _206
REMARK   87  A    between atoms: _209  and  _211
REMARK   88  A    between atoms: _211  and  _212
REMARK   89  A    between atoms: _211  and  _214
REMARK   90  A    between atoms: _214  and  _215
REMARK   91  A    between atoms: _215  and  _216
REMARK   92  A    between atoms: _219  and  _221
REMARK   93  A    between atoms: _221  and  _222
REMARK   94  A    between atoms: _221  and  _224
REMARK   95  A    between atoms: _224  and  _225
REMARK   96  A    between atoms: _231  and  _232
REMARK   97  A    between atoms: _237  and  _239
REMARK   98  A    between atoms: _239  and  _240
REMARK   99  A    between atoms: _242  and  _244
REMARK  100  A    between atoms: _244  and  _245
REMARK  101  A    between atoms: _244  and  _247
REMARK  102  A    between atoms: _250  and  _252
REMARK  103  A    between atoms: _252  and  _253
REMARK  104  A    between atoms: _252  and  _255
REMARK  105  A    between atoms: _255  and  _256
REMARK  106  A    between atoms: _261  and  _262
REMARK                            x       y       z     vdW  Elec       q    Type
REMARK                         _______ _______ _______ _____ _____    ______ ____
ROOT
ATOM      1  O   HOH     1      19.805  11.767  60.492  0.00  0.00    +0.000 OA
ENDROOT
TORSDOF 0
REMARK  Name = ../refined-set-2016/1utj/1utj_pocket.pdb
REMARK  106 active torsions:
REMARK  status: ('A' for Active; 'I' for Inactive)
REMARK    1  A    between atoms: _1  and  _3
REMARK    2  A    between atoms: _3  and  _4
REMARK    3  A    between atoms: _3  and  _6
REMARK    4  A    between atoms: _9  and  _11
REMARK    5  A    between atoms: _11  and  _12
REMARK    6  A    between atoms: _11  and  _14
REMARK    7  A    between atoms: _14  and  _15
REMARK    8  A    between atoms: _20  and  _22
REMARK    9  A    between atoms: _22  and  _23
REMARK   10  A    between atoms: _22  and  _25
REMARK   11  A    between atoms: _25  and  _26
REMARK   12  A    between atoms: _31  and  _33
REMARK   13  A    between atoms: _33  and  _34
REMARK   14  A    between atoms: _33  and  _36
REMARK   15  A    between atoms: _36  and  _37
REMARK   16  A    between atoms: _42  and  _43
REMARK   17  A    between atoms: _45  and  _47
REMARK   18  A    between atoms: _47  and  _48
REMARK   19  A    between atoms: _51  and  _53
REMARK   20  A    between atoms: _53  and  _54
REMARK   21  A    between atoms: _53  and  _56
REMARK   22  A    between atoms: _56  and  _57
REMARK   23  A    between atoms: _57  and  _58
REMARK   24  A    between atoms: _58  and  _59
REMARK   25  A    between atoms: _59  and  _60
REMARK   26  A    between atoms: _64  and  _66
REMARK   27  A    between atoms: _66  and  _67
REMARK   28  A    between atoms: _66  and  _69
REMARK   29  A    between atoms: _69  and  _70
REMARK   30  A    between atoms: _73  and  _75
REMARK   31  A    between atoms: _75  and  _76
REMARK   32  A    between atoms: _75  and  _78
REMARK   33  A    between atoms: _78  and  _79
REMARK   34  A    between atoms: _81  and  _83
REMARK   35  A    between atoms: _83  and  _84
REMARK   36  A    between atoms: _83  and  _86
REMARK   37  A    between atoms: _86  and  _87
REMARK   38  A    between atoms: _87  and  _202
REMARK   39  A    between atoms: _88  and  _90
REMARK   40  A    between atoms: _90  and  _91
REMARK   41  A    between atoms: _90  and  _93
REMARK   42  A    between atoms: _93  and  _94
REMARK   43  A    between atoms: _94  and  _95
REMARK   44  A    between atoms: _100  and  _102
REMARK   45  A    between atoms: _102  and  _103
REMARK   46  A    between atoms: _105  and  _107
REMARK   47  A    between atoms: _107  and  _108
REMARK   48  A    between atoms: _107  and  _110
REMARK   49  A    between atoms: _110  and  _111
REMARK   50  A    between atoms: _114  and  _116
REMARK   51  A    between atoms: _116  and  _117
REMARK   52  A    between atoms: _116  and  _119
REMARK   53  A    between atoms: _119  and  _120
REMARK   54  A    between atoms: _122  and  _124
REMARK   55  A    between atoms: _124  and  _125
REMARK   56  A    between atoms: _127  and  _129
REMARK   57  A    between atoms: _129  and  _130
REMARK   58  A    between atoms: _132  and  _134
REMARK   59  A    between atoms: _134  and  _135
REMARK   60  A    between atoms: _134  and  _137
REMARK   61  A    between atoms: _140  and  _142
REMARK   62  A    between atoms: _142  and  _143
REMARK   63  A    between atoms: _142  and  _145
REMARK   64  A    between atoms: _148  and  _150
REMARK   65  A    between atoms: _150  and  _151
REMARK   66  A    between atoms: _150  and  _153
REMARK   67  A    between atoms: _153  and  _154
REMARK   68  A    between atoms: _156  and  _158
REMARK   69  A    between atoms: _158  and  _159
REMARK   70  A    between atoms: _158  and  _161
REMARK   71  A    between atoms: _161  and  _162
REMARK   72  A    between atoms: _172  and  _174
REMARK   73  A    between atoms: _174  and  _175
REMARK   74  A    between atoms: _177  and  _179
REMARK   75  A    between atoms: _179  and  _180
REMARK   76  A    between atoms: _179  and  _182
REMARK   77  A    between atoms: _182  and  _183
REMARK   78  A    between atoms: _188  and  _189
REMARK   79  A    between atoms: _191  and  _193
REMARK   80  A    between atoms: _193  and  _194
REMARK   81  A    between atoms: _196  and  _198
REMARK   82  A    between atoms: _198  and  _199
REMARK   83  A    between atoms: _198  and  _201
REMARK   84  A    between atoms: _201  and  _202
REMARK   85  A    between atoms: _203  and  _205
REMARK   86  A    between atoms: _205  and  _206
REMARK   87  A    between atoms: _209  and  _211
REMARK   88  A    between atoms: _211  and  _212
REMARK   89  A    between atoms: _211  and  _214
REMARK   90  A    between atoms: _214  and  _215
REMARK   91  A    between atoms: _215  and  _216
REMARK   92  A    between atoms: _219  and  _221
REMARK   93  A    between atoms: _221  and  _222
REMARK   94  A    between atoms: _221  and  _224
REMARK   95  A    between atoms: _224  and  _225
REMARK   96  A    between atoms: _231  and  _232
REMARK   97  A    between atoms: _237  and  _239
REMARK   98  A    between atoms: _239  and  _240
REMARK   99  A    between atoms: _242  and  _244
REMARK  100  A    between atoms: _244  and  _245
REMARK  101  A    between atoms: _244  and  _247
REMARK  102  A    between atoms: _250  and  _252
REMARK  103  A    between atoms: _252  and  _253
REMARK  104  A    between atoms: _252  and  _255
REMARK  105  A    between atoms: _255  and  _256
REMARK  106  A    between atoms: _261  and  _262
REMARK                            x       y       z     vdW  Elec       q    Type
REMARK                         _______ _______ _______ _____ _____    ______ ____
ROOT
ATOM      1  O   HOH     1      30.078  17.251  55.661  0.00  0.00    +0.000 OA
ENDROOT
TORSDOF 0
REMARK  Name = ../refined-set-2016/1utj/1utj_pocket.pdb
REMARK  106 active torsions:
REMARK  status: ('A' for Active; 'I' for Inactive)
REMARK    1  A    between atoms: _1  and  _3
REMARK    2  A    between atoms: _3  and  _4
REMARK    3  A    between atoms: _3  and  _6
REMARK    4  A    between atoms: _9  and  _11
REMARK    5  A    between atoms: _11  and  _12
REMARK    6  A    between atoms: _11  and  _14
REMARK    7  A    between atoms: _14  and  _15
REMARK    8  A    between atoms: _20  and  _22
REMARK    9  A    between atoms: _22  and  _23
REMARK   10  A    between atoms: _22  and  _25
REMARK   11  A    between atoms: _25  and  _26
REMARK   12  A    between atoms: _31  and  _33
REMARK   13  A    between atoms: _33  and  _34
REMARK   14  A    between atoms: _33  and  _36
REMARK   15  A    between atoms: _36  and  _37
REMARK   16  A    between atoms: _42  and  _43
REMARK   17  A    between atoms: _45  and  _47
REMARK   18  A    between atoms: _47  and  _48
REMARK   19  A    between atoms: _51  and  _53
REMARK   20  A    between atoms: _53  and  _54
REMARK   21  A    between atoms: _53  and  _56
REMARK   22  A    between atoms: _56  and  _57
REMARK   23  A    between atoms: _57  and  _58
REMARK   24  A    between atoms: _58  and  _59
REMARK   25  A    between atoms: _59  and  _60
REMARK   26  A    between atoms: _64  and  _66
REMARK   27  A    between atoms: _66  and  _67
REMARK   28  A    between atoms: _66  and  _69
REMARK   29  A    between atoms: _69  and  _70
REMARK   30  A    between atoms: _73  and  _75
REMARK   31  A    between atoms: _75  and  _76
REMARK   32  A    between atoms: _75  and  _78
REMARK   33  A    between atoms: _78  and  _79
REMARK   34  A    between atoms: _81  and  _83
REMARK   35  A    between atoms: _83  and  _84
REMARK   36  A    between atoms: _83  and  _86
REMARK   37  A    between atoms: _86  and  _87
REMARK   38  A    between atoms: _87  and  _202
REMARK   39  A    between atoms: _88  and  _90
REMARK   40  A    between atoms: _90  and  _91
REMARK   41  A    between atoms: _90  and  _93
REMARK   42  A    between atoms: _93  and  _94
REMARK   43  A    between atoms: _94  and  _95
REMARK   44  A    between atoms: _100  and  _102
REMARK   45  A    between atoms: _102  and  _103
REMARK   46  A    between atoms: _105  and  _107
REMARK   47  A    between atoms: _107  and  _108
REMARK   48  A    between atoms: _107  and  _110
REMARK   49  A    between atoms: _110  and  _111
REMARK   50  A    between atoms: _114  and  _116
REMARK   51  A    between atoms: _116  and  _117
REMARK   52  A    between atoms: _116  and  _119
REMARK   53  A    between atoms: _119  and  _120
REMARK   54  A    between atoms: _122  and  _124
REMARK   55  A    between atoms: _124  and  _125
REMARK   56  A    between atoms: _127  and  _129
REMARK   57  A    between atoms: _129  and  _130
REMARK   58  A    between atoms: _132  and  _134
REMARK   59  A    between atoms: _134  and  _135
REMARK   60  A    between atoms: _134  and  _137
REMARK   61  A    between atoms: _140  and  _142
REMARK   62  A    between atoms: _142  and  _143
REMARK   63  A    between atoms: _142  and  _145
REMARK   64  A    between atoms: _148  and  _150
REMARK   65  A    between atoms: _150  and  _151
REMARK   66  A    between atoms: _150  and  _153
REMARK   67  A    between atoms: _153  and  _154
REMARK   68  A    between atoms: _156  and  _158
REMARK   69  A    between atoms: _158  and  _159
REMARK   70  A    between atoms: _158  and  _161
REMARK   71  A    between atoms: _161  and  _162
REMARK   72  A    between atoms: _172  and  _174
REMARK   73  A    between atoms: _174  and  _175
REMARK   74  A    between atoms: _177  and  _179
REMARK   75  A    between atoms: _179  and  _180
REMARK   76  A    between atoms: _179  and  _182
REMARK   77  A    between atoms: _182  and  _183
REMARK   78  A    between atoms: _188  and  _189
REMARK   79  A    between atoms: _191  and  _193
REMARK   80  A    between atoms: _193  and  _194
REMARK   81  A    between atoms: _196  and  _198
REMARK   82  A    between atoms: _198  and  _199
REMARK   83  A    between atoms: _198  and  _201
REMARK   84  A    between atoms: _201  and  _202
REMARK   85  A    between atoms: _203  and  _205
REMARK   86  A    between atoms: _205  and  _206
REMARK   87  A    between atoms: _209  and  _211
REMARK   88  A    between atoms: _211  and  _212
REMARK   89  A    between atoms: _211  and  _214
REMARK   90  A    between atoms: _214  and  _215
REMARK   91  A    between atoms: _215  and  _216
REMARK   92  A    between atoms: _219  and  _221
REMARK   93  A    between atoms: _221  and  _222
REMARK   94  A    between atoms: _221  and  _224
REMARK   95  A    between atoms: _224  and  _225
REMARK   96  A    between atoms: _231  and  _232
REMARK   97  A    between atoms: _237  and  _239
REMARK   98  A    between atoms: _239  and  _240
REMARK   99  A    between atoms: _242  and  _244
REMARK  100  A    between atoms: _244  and  _245
REMARK  101  A    between atoms: _244  and  _247
REMARK  102  A    between atoms: _250  and  _252
REMARK  103  A    between atoms: _252  and  _253
REMARK  104  A    between atoms: _252  and  _255
REMARK  105  A    between atoms: _255  and  _256
REMARK  106  A    between atoms: _261  and  _262
REMARK                            x       y       z     vdW  Elec       q    Type
REMARK                         _______ _______ _______ _____ _____    ______ ____
ROOT
ATOM      1  O   HOH     1      32.324  13.796  59.089  0.00  0.00    +0.000 OA
ENDROOT
TORSDOF 0
REMARK  Name = ../refined-set-2016/1utj/1utj_pocket.pdb
REMARK  106 active torsions:
REMARK  status: ('A' for Active; 'I' for Inactive)
REMARK    1  A    between atoms: _1  and  _3
REMARK    2  A    between atoms: _3  and  _4
REMARK    3  A    between atoms: _3  and  _6
REMARK    4  A    between atoms: _9  and  _11
REMARK    5  A    between atoms: _11  and  _12
REMARK    6  A    between atoms: _11  and  _14
REMARK    7  A    between atoms: _14  and  _15
REMARK    8  A    between atoms: _20  and  _22
REMARK    9  A    between atoms: _22  and  _23
REMARK   10  A    between atoms: _22  and  _25
REMARK   11  A    between atoms: _25  and  _26
REMARK   12  A    between atoms: _31  and  _33
REMARK   13  A    between atoms: _33  and  _34
REMARK   14  A    between atoms: _33  and  _36
REMARK   15  A    between atoms: _36  and  _37
REMARK   16  A    between atoms: _42  and  _43
REMARK   17  A    between atoms: _45  and  _47
REMARK   18  A    between atoms: _47  and  _48
REMARK   19  A    between atoms: _51  and  _53
REMARK   20  A    between atoms: _53  and  _54
REMARK   21  A    between atoms: _53  and  _56
REMARK   22  A    between atoms: _56  and  _57
REMARK   23  A    between atoms: _57  and  _58
REMARK   24  A    between atoms: _58  and  _59
REMARK   25  A    between atoms: _59  and  _60
REMARK   26  A    between atoms: _64  and  _66
REMARK   27  A    between atoms: _66  and  _67
REMARK   28  A    between atoms: _66  and  _69
REMARK   29  A    between atoms: _69  and  _70
REMARK   30  A    between atoms: _73  and  _75
REMARK   31  A    between atoms: _75  and  _76
REMARK   32  A    between atoms: _75  and  _78
REMARK   33  A    between atoms: _78  and  _79
REMARK   34  A    between atoms: _81  and  _83
REMARK   35  A    between atoms: _83  and  _84
REMARK   36  A    between atoms: _83  and  _86
REMARK   37  A    between atoms: _86  and  _87
REMARK   38  A    between atoms: _87  and  _202
REMARK   39  A    between atoms: _88  and  _90
REMARK   40  A    between atoms: _90  and  _91
REMARK   41  A    between atoms: _90  and  _93
REMARK   42  A    between atoms: _93  and  _94
REMARK   43  A    between atoms: _94  and  _95
REMARK   44  A    between atoms: _100  and  _102
REMARK   45  A    between atoms: _102  and  _103
REMARK   46  A    between atoms: _105  and  _107
REMARK   47  A    between atoms: _107  and  _108
REMARK   48  A    between atoms: _107  and  _110
REMARK   49  A    between atoms: _110  and  _111
REMARK   50  A    between atoms: _114  and  _116
REMARK   51  A    between atoms: _116  and  _117
REMARK   52  A    between atoms: _116  and  _119
REMARK   53  A    between atoms: _119  and  _120
REMARK   54  A    between atoms: _122  and  _124
REMARK   55  A    between atoms: _124  and  _125
REMARK   56  A    between atoms: _127  and  _129
REMARK   57  A    between atoms: _129  and  _130
REMARK   58  A    between atoms: _132  and  _134
REMARK   59  A    between atoms: _134  and  _135
REMARK   60  A    between atoms: _134  and  _137
REMARK   61  A    between atoms: _140  and  _142
REMARK   62  A    between atoms: _142  and  _143
REMARK   63  A    between atoms: _142  and  _145
REMARK   64  A    between atoms: _148  and  _150
REMARK   65  A    between atoms: _150  and  _151
REMARK   66  A    between atoms: _150  and  _153
REMARK   67  A    between atoms: _153  and  _154
REMARK   68  A    between atoms: _156  and  _158
REMARK   69  A    between atoms: _158  and  _159
REMARK   70  A    between atoms: _158  and  _161
REMARK   71  A    between atoms: _161  and  _162
REMARK   72  A    between atoms: _172  and  _174
REMARK   73  A    between atoms: _174  and  _175
REMARK   74  A    between atoms: _177  and  _179
REMARK   75  A    between atoms: _179  and  _180
REMARK   76  A    between atoms: _179  and  _182
REMARK   77  A    between atoms: _182  and  _183
REMARK   78  A    between atoms: _188  and  _189
REMARK   79  A    between atoms: _191  and  _193
REMARK   80  A    between atoms: _193  and  _194
REMARK   81  A    between atoms: _196  and  _198
REMARK   82  A    between atoms: _198  and  _199
REMARK   83  A    between atoms: _198  and  _201
REMARK   84  A    between atoms: _201  and  _202
REMARK   85  A    between atoms: _203  and  _205
REMARK   86  A    between atoms: _205  and  _206
REMARK   87  A    between atoms: _209  and  _211
REMARK   88  A    between atoms: _211  and  _212
REMARK   89  A    between atoms: _211  and  _214
REMARK   90  A    between atoms: _214  and  _215
REMARK   91  A    between atoms: _215  and  _216
REMARK   92  A    between atoms: _219  and  _221
REMARK   93  A    between atoms: _221  and  _222
REMARK   94  A    between atoms: _221  and  _224
REMARK   95  A    between atoms: _224  and  _225
REMARK   96  A    between atoms: _231  and  _232
REMARK   97  A    between atoms: _237  and  _239
REMARK   98  A    between atoms: _239  and  _240
REMARK   99  A    between atoms: _242  and  _244
REMARK  100  A    between atoms: _244  and  _245
REMARK  101  A    between atoms: _244  and  _247
REMARK  102  A    between atoms: _250  and  _252
REMARK  103  A    between atoms: _252  and  _253
REMARK  104  A    between atoms: _252  and  _255
REMARK  105  A    between atoms: _255  and  _256
REMARK  106  A    between atoms: _261  and  _262
REMARK                            x       y       z     vdW  Elec       q    Type
REMARK                         _______ _______ _______ _____ _____    ______ ____
ROOT
ATOM      1  O   HOH     1      29.874  20.820  55.496  0.00  0.00    +0.000 OA
ENDROOT
TORSDOF 0
REMARK  Name = ../refined-set-2016/1utj/1utj_pocket.pdb
REMARK  106 active torsions:
REMARK  status: ('A' for Active; 'I' for Inactive)
REMARK    1  A    between atoms: _1  and  _3
REMARK    2  A    between atoms: _3  and  _4
REMARK    3  A    between atoms: _3  and  _6
REMARK    4  A    between atoms: _9  and  _11
REMARK    5  A    between atoms: _11  and  _12
REMARK    6  A    between atoms: _11  and  _14
REMARK    7  A    between atoms: _14  and  _15
REMARK    8  A    between atoms: _20  and  _22
REMARK    9  A    between atoms: _22  and  _23
REMARK   10  A    between atoms: _22  and  _25
REMARK   11  A    between atoms: _25  and  _26
REMARK   12  A    between atoms: _31  and  _33
REMARK   13  A    between atoms: _33  and  _34
REMARK   14  A    between atoms: _33  and  _36
REMARK   15  A    between atoms: _36  and  _37
REMARK   16  A    between atoms: _42  and  _43
REMARK   17  A    between atoms: _45  and  _47
REMARK   18  A    between atoms: _47  and  _48
REMARK   19  A    between atoms: _51  and  _53
REMARK   20  A    between atoms: _53  and  _54
REMARK   21  A    between atoms: _53  and  _56
REMARK   22  A    between atoms: _56  and  _57
REMARK   23  A    between atoms: _57  and  _58
REMARK   24  A    between atoms: _58  and  _59
REMARK   25  A    between atoms: _59  and  _60
REMARK   26  A    between atoms: _64  and  _66
REMARK   27  A    between atoms: _66  and  _67
REMARK   28  A    between atoms: _66  and  _69
REMARK   29  A    between atoms: _69  and  _70
REMARK   30  A    between atoms: _73  and  _75
REMARK   31  A    between atoms: _75  and  _76
REMARK   32  A    between atoms: _75  and  _78
REMARK   33  A    between atoms: _78  and  _79
REMARK   34  A    between atoms: _81  and  _83
REMARK   35  A    between atoms: _83  and  _84
REMARK   36  A    between atoms: _83  and  _86
REMARK   37  A    between atoms: _86  and  _87
REMARK   38  A    between atoms: _87  and  _202
REMARK   39  A    between atoms: _88  and  _90
REMARK   40  A    between atoms: _90  and  _91
REMARK   41  A    between atoms: _90  and  _93
REMARK   42  A    between atoms: _93  and  _94
REMARK   43  A    between atoms: _94  and  _95
REMARK   44  A    between atoms: _100  and  _102
REMARK   45  A    between atoms: _102  and  _103
REMARK   46  A    between atoms: _105  and  _107
REMARK   47  A    between atoms: _107  and  _108
REMARK   48  A    between atoms: _107  and  _110
REMARK   49  A    between atoms: _110  and  _111
REMARK   50  A    between atoms: _114  and  _116
REMARK   51  A    between atoms: _116  and  _117
REMARK   52  A    between atoms: _116  and  _119
REMARK   53  A    between atoms: _119  and  _120
REMARK   54  A    between atoms: _122  and  _124
REMARK   55  A    between atoms: _124  and  _125
REMARK   56  A    between atoms: _127  and  _129
REMARK   57  A    between atoms: _129  and  _130
REMARK   58  A    between atoms: _132  and  _134
REMARK   59  A    between atoms: _134  and  _135
REMARK   60  A    between atoms: _134  and  _137
REMARK   61  A    between atoms: _140  and  _142
REMARK   62  A    between atoms: _142  and  _143
REMARK   63  A    between atoms: _142  and  _145
REMARK   64  A    between atoms: _148  and  _150
REMARK   65  A    between atoms: _150  and  _151
REMARK   66  A    between atoms: _150  and  _153
REMARK   67  A    between atoms: _153  and  _154
REMARK   68  A    between atoms: _156  and  _158
REMARK   69  A    between atoms: _158  and  _159
REMARK   70  A    between atoms: _158  and  _161
REMARK   71  A    between atoms: _161  and  _162
REMARK   72  A    between atoms: _172  and  _174
REMARK   73  A    between atoms: _174  and  _175
REMARK   74  A    between atoms: _177  and  _179
REMARK   75  A    between atoms: _179  and  _180
REMARK   76  A    between atoms: _179  and  _182
REMARK   77  A    between atoms: _182  and  _183
REMARK   78  A    between atoms: _188  and  _189
REMARK   79  A    between atoms: _191  and  _193
REMARK   80  A    between atoms: _193  and  _194
REMARK   81  A    between atoms: _196  and  _198
REMARK   82  A    between atoms: _198  and  _199
REMARK   83  A    between atoms: _198  and  _201
REMARK   84  A    between atoms: _201  and  _202
REMARK   85  A    between atoms: _203  and  _205
REMARK   86  A    between atoms: _205  and  _206
REMARK   87  A    between atoms: _209  and  _211
REMARK   88  A    between atoms: _211  and  _212
REMARK   89  A    between atoms: _211  and  _214
REMARK   90  A    between atoms: _214  and  _215
REMARK   91  A    between atoms: _215  and  _216
REMARK   92  A    between atoms: _219  and  _221
REMARK   93  A    between atoms: _221  and  _222
REMARK   94  A    between atoms: _221  and  _224
REMARK   95  A    between atoms: _224  and  _225
REMARK   96  A    between atoms: _231  and  _232
REMARK   97  A    between atoms: _237  and  _239
REMARK   98  A    between atoms: _239  and  _240
REMARK   99  A    between atoms: _242  and  _244
REMARK  100  A    between atoms: _244  and  _245
REMARK  101  A    between atoms: _244  and  _247
REMARK  102  A    between atoms: _250  and  _252
REMARK  103  A    between atoms: _252  and  _253
REMARK  104  A    between atoms: _252  and  _255
REMARK  105  A    between atoms: _255  and  _256
REMARK  106  A    between atoms: _261  and  _262
REMARK                            x       y       z     vdW  Elec       q    Type
REMARK                         _______ _______ _______ _____ _____    ______ ____
ROOT
ATOM      1  O   HOH     1      26.975  17.023  54.930  0.00  0.00    +0.000 OA
ENDROOT
TORSDOF 0
REMARK  Name = ../refined-set-2016/1utj/1utj_pocket.pdb
REMARK  106 active torsions:
REMARK  status: ('A' for Active; 'I' for Inactive)
REMARK    1  A    between atoms: _1  and  _3
REMARK    2  A    between atoms: _3  and  _4
REMARK    3  A    between atoms: _3  and  _6
REMARK    4  A    between atoms: _9  and  _11
REMARK    5  A    between atoms: _11  and  _12
REMARK    6  A    between atoms: _11  and  _14
REMARK    7  A    between atoms: _14  and  _15
REMARK    8  A    between atoms: _20  and  _22
REMARK    9  A    between atoms: _22  and  _23
REMARK   10  A    between atoms: _22  and  _25
REMARK   11  A    between atoms: _25  and  _26
REMARK   12  A    between atoms: _31  and  _33
REMARK   13  A    between atoms: _33  and  _34
REMARK   14  A    between atoms: _33  and  _36
REMARK   15  A    between atoms: _36  and  _37
REMARK   16  A    between atoms: _42  and  _43
REMARK   17  A    between atoms: _45  and  _47
REMARK   18  A    between atoms: _47  and  _48
REMARK   19  A    between atoms: _51  and  _53
REMARK   20  A    between atoms: _53  and  _54
REMARK   21  A    between atoms: _53  and  _56
REMARK   22  A    between atoms: _56  and  _57
REMARK   23  A    between atoms: _57  and  _58
REMARK   24  A    between atoms: _58  and  _59
REMARK   25  A    between atoms: _59  and  _60
REMARK   26  A    between atoms: _64  and  _66
REMARK   27  A    between atoms: _66  and  _67
REMARK   28  A    between atoms: _66  and  _69
REMARK   29  A    between atoms: _69  and  _70
REMARK   30  A    between atoms: _73  and  _75
REMARK   31  A    between atoms: _75  and  _76
REMARK   32  A    between atoms: _75  and  _78
REMARK   33  A    between atoms: _78  and  _79
REMARK   34  A    between atoms: _81  and  _83
REMARK   35  A    between atoms: _83  and  _84
REMARK   36  A    between atoms: _83  and  _86
REMARK   37  A    between atoms: _86  and  _87
REMARK   38  A    between atoms: _87  and  _202
REMARK   39  A    between atoms: _88  and  _90
REMARK   40  A    between atoms: _90  and  _91
REMARK   41  A    between atoms: _90  and  _93
REMARK   42  A    between atoms: _93  and  _94
REMARK   43  A    between atoms: _94  and  _95
REMARK   44  A    between atoms: _100  and  _102
REMARK   45  A    between atoms: _102  and  _103
REMARK   46  A    between atoms: _105  and  _107
REMARK   47  A    between atoms: _107  and  _108
REMARK   48  A    between atoms: _107  and  _110
REMARK   49  A    between atoms: _110  and  _111
REMARK   50  A    between atoms: _114  and  _116
REMARK   51  A    between atoms: _116  and  _117
REMARK   52  A    between atoms: _116  and  _119
REMARK   53  A    between atoms: _119  and  _120
REMARK   54  A    between atoms: _122  and  _124
REMARK   55  A    between atoms: _124  and  _125
REMARK   56  A    between atoms: _127  and  _129
REMARK   57  A    between atoms: _129  and  _130
REMARK   58  A    between atoms: _132  and  _134
REMARK   59  A    between atoms: _134  and  _135
REMARK   60  A    between atoms: _134  and  _137
REMARK   61  A    between atoms: _140  and  _142
REMARK   62  A    between atoms: _142  and  _143
REMARK   63  A    between atoms: _142  and  _145
REMARK   64  A    between atoms: _148  and  _150
REMARK   65  A    between atoms: _150  and  _151
REMARK   66  A    between atoms: _150  and  _153
REMARK   67  A    between atoms: _153  and  _154
REMARK   68  A    between atoms: _156  and  _158
REMARK   69  A    between atoms: _158  and  _159
REMARK   70  A    between atoms: _158  and  _161
REMARK   71  A    between atoms: _161  and  _162
REMARK   72  A    between atoms: _172  and  _174
REMARK   73  A    between atoms: _174  and  _175
REMARK   74  A    between atoms: _177  and  _179
REMARK   75  A    between atoms: _179  and  _180
REMARK   76  A    between atoms: _179  and  _182
REMARK   77  A    between atoms: _182  and  _183
REMARK   78  A    between atoms: _188  and  _189
REMARK   79  A    between atoms: _191  and  _193
REMARK   80  A    between atoms: _193  and  _194
REMARK   81  A    between atoms: _196  and  _198
REMARK   82  A    between atoms: _198  and  _199
REMARK   83  A    between atoms: _198  and  _201
REMARK   84  A    between atoms: _201  and  _202
REMARK   85  A    between atoms: _203  and  _205
REMARK   86  A    between atoms: _205  and  _206
REMARK   87  A    between atoms: _209  and  _211
REMARK   88  A    between atoms: _211  and  _212
REMARK   89  A    between atoms: _211  and  _214
REMARK   90  A    between atoms: _214  and  _215
REMARK   91  A    between atoms: _215  and  _216
REMARK   92  A    between atoms: _219  and  _221
REMARK   93  A    between atoms: _221  and  _222
REMARK   94  A    between atoms: _221  and  _224
REMARK   95  A    between atoms: _224  and  _225
REMARK   96  A    between atoms: _231  and  _232
REMARK   97  A    between atoms: _237  and  _239
REMARK   98  A    between atoms: _239  and  _240
REMARK   99  A    between atoms: _242  and  _244
REMARK  100  A    between atoms: _244  and  _245
REMARK  101  A    between atoms: _244  and  _247
REMARK  102  A    between atoms: _250  and  _252
REMARK  103  A    between atoms: _252  and  _253
REMARK  104  A    between atoms: _252  and  _255
REMARK  105  A    between atoms: _255  and  _256
REMARK  106  A    between atoms: _261  and  _262
REMARK                            x       y       z     vdW  Elec       q    Type
REMARK                         _______ _______ _______ _____ _____    ______ ____
ROOT
ATOM      1  O   HOH     1      24.777  22.960  56.859  0.00  0.00    +0.000 OA
ENDROOT
TORSDOF 0
