REMARK  Name = ../refined-set-2016/1tcx/1tcx_pocket.pdb
REMARK  230 active torsions:
REMARK  status: ('A' for Active; 'I' for Inactive)
REMARK    1  A    between atoms: _1  and  _3
REMARK    2  A    between atoms: _3  and  _4
REMARK    3  A    between atoms: _3  and  _6
REMARK    4  A    between atoms: _6  and  _7
REMARK    5  A    between atoms: _7  and  _8
REMARK    6  A    between atoms: _8  and  _9
REMARK    7  A    between atoms: _18  and  _20
REMARK    8  A    between atoms: _20  and  _21
REMARK    9  A    between atoms: _20  and  _23
REMARK   10  A    between atoms: _23  and  _24
REMARK   11  A    between atoms: _27  and  _29
REMARK   12  A    between atoms: _29  and  _30
REMARK   13  A    between atoms: _29  and  _32
REMARK   14  A    between atoms: _32  and  _33
REMARK   15  A    between atoms: _36  and  _38
REMARK   16  A    between atoms: _38  and  _39
REMARK   17  A    between atoms: _38  and  _41
REMARK   18  A    between atoms: _41  and  _42
REMARK   19  A    between atoms: _45  and  _47
REMARK   20  A    between atoms: _47  and  _48
REMARK   21  A    between atoms: _47  and  _50
REMARK   22  A    between atoms: _50  and  _51
REMARK   23  A    between atoms: _54  and  _56
REMARK   24  A    between atoms: _56  and  _57
REMARK   25  A    between atoms: _59  and  _61
REMARK   26  A    between atoms: _61  and  _62
REMARK   27  A    between atoms: _65  and  _67
REMARK   28  A    between atoms: _67  and  _68
REMARK   29  A    between atoms: _67  and  _70
REMARK   30  A    between atoms: _70  and  _71
REMARK   31  A    between atoms: _74  and  _76
REMARK   32  A    between atoms: _76  and  _77
REMARK   33  A    between atoms: _76  and  _79
REMARK   34  A    between atoms: _79  and  _80
REMARK   35  A    between atoms: _83  and  _85
REMARK   36  A    between atoms: _85  and  _86
REMARK   37  A    between atoms: _85  and  _88
REMARK   38  A    between atoms: _88  and  _89
REMARK   39  A    between atoms: _92  and  _94
REMARK   40  A    between atoms: _94  and  _95
REMARK   41  A    between atoms: _94  and  _97
REMARK   42  A    between atoms: _97  and  _98
REMARK   43  A    between atoms: _101  and  _103
REMARK   44  A    between atoms: _103  and  _104
REMARK   45  A    between atoms: _103  and  _106
REMARK   46  A    between atoms: _106  and  _107
REMARK   47  A    between atoms: _107  and  _108
REMARK   48  A    between atoms: _108  and  _109
REMARK   49  A    between atoms: _109  and  _110
REMARK   50  A    between atoms: _114  and  _116
REMARK   51  A    between atoms: _116  and  _117
REMARK   52  A    between atoms: _116  and  _119
REMARK   53  A    between atoms: _119  and  _120
REMARK   54  A    between atoms: _120  and  _121
REMARK   55  A    between atoms: _123  and  _125
REMARK   56  A    between atoms: _125  and  _126
REMARK   57  A    between atoms: _125  and  _128
REMARK   58  A    between atoms: _131  and  _133
REMARK   59  A    between atoms: _133  and  _134
REMARK   60  A    between atoms: _136  and  _138
REMARK   61  A    between atoms: _138  and  _139
REMARK   62  A    between atoms: _141  and  _143
REMARK   63  A    between atoms: _143  and  _144
REMARK   64  A    between atoms: _143  and  _146
REMARK   65  A    between atoms: _146  and  _147
REMARK   66  A    between atoms: _150  and  _152
REMARK   67  A    between atoms: _152  and  _153
REMARK   68  A    between atoms: _155  and  _157
REMARK   69  A    between atoms: _157  and  _158
REMARK   70  A    between atoms: _160  and  _162
REMARK   71  A    between atoms: _162  and  _163
REMARK   72  A    between atoms: _162  and  _165
REMARK   73  A    between atoms: _165  and  _166
REMARK   74  A    between atoms: _172  and  _174
REMARK   75  A    between atoms: _174  and  _175
REMARK   76  A    between atoms: _174  and  _177
REMARK   77  A    between atoms: _177  and  _178
REMARK   78  A    between atoms: _181  and  _183
REMARK   79  A    between atoms: _183  and  _184
REMARK   80  A    between atoms: _183  and  _186
REMARK   81  A    between atoms: _189  and  _191
REMARK   82  A    between atoms: _191  and  _192
REMARK   83  A    between atoms: _191  and  _194
REMARK   84  A    between atoms: _194  and  _195
REMARK   85  A    between atoms: _198  and  _200
REMARK   86  A    between atoms: _200  and  _201
REMARK   87  A    between atoms: _200  and  _203
REMARK   88  A    between atoms: _203  and  _204
REMARK   89  A    between atoms: _208  and  _209
REMARK   90  A    between atoms: _214  and  _216
REMARK   91  A    between atoms: _216  and  _217
REMARK   92  A    between atoms: _216  and  _219
REMARK   93  A    between atoms: _219  and  _220
REMARK   94  A    between atoms: _223  and  _225
REMARK   95  A    between atoms: _225  and  _226
REMARK   96  A    between atoms: _225  and  _228
REMARK   97  A    between atoms: _228  and  _229
REMARK   98  A    between atoms: _234  and  _236
REMARK   99  A    between atoms: _236  and  _237
REMARK  100  A    between atoms: _236  and  _239
REMARK  101  A    between atoms: _239  and  _240
REMARK  102  A    between atoms: _243  and  _245
REMARK  103  A    between atoms: _245  and  _246
REMARK  104  A    between atoms: _245  and  _248
REMARK  105  A    between atoms: _248  and  _249
REMARK  106  A    between atoms: _252  and  _254
REMARK  107  A    between atoms: _254  and  _255
REMARK  108  A    between atoms: _257  and  _259
REMARK  109  A    between atoms: _259  and  _260
REMARK  110  A    between atoms: _259  and  _262
REMARK  111  A    between atoms: _262  and  _263
REMARK  112  A    between atoms: _263  and  _264
REMARK  113  A    between atoms: _264  and  _265
REMARK  114  A    between atoms: _274  and  _276
REMARK  115  A    between atoms: _276  and  _277
REMARK  116  A    between atoms: _276  and  _279
REMARK  117  A    between atoms: _279  and  _280
REMARK  118  A    between atoms: _280  and  _281
REMARK  119  A    between atoms: _281  and  _282
REMARK  120  A    between atoms: _291  and  _293
REMARK  121  A    between atoms: _293  and  _294
REMARK  122  A    between atoms: _293  and  _296
REMARK  123  A    between atoms: _296  and  _297
REMARK  124  A    between atoms: _300  and  _302
REMARK  125  A    between atoms: _302  and  _303
REMARK  126  A    between atoms: _302  and  _305
REMARK  127  A    between atoms: _305  and  _306
REMARK  128  A    between atoms: _309  and  _311
REMARK  129  A    between atoms: _311  and  _312
REMARK  130  A    between atoms: _311  and  _314
REMARK  131  A    between atoms: _314  and  _315
REMARK  132  A    between atoms: _318  and  _320
REMARK  133  A    between atoms: _320  and  _321
REMARK  134  A    between atoms: _320  and  _323
REMARK  135  A    between atoms: _323  and  _324
REMARK  136  A    between atoms: _327  and  _329
REMARK  137  A    between atoms: _329  and  _330
REMARK  138  A    between atoms: _329  and  _332
REMARK  139  A    between atoms: _332  and  _333
REMARK  140  A    between atoms: _336  and  _338
REMARK  141  A    between atoms: _338  and  _339
REMARK  142  A    between atoms: _341  and  _343
REMARK  143  A    between atoms: _343  and  _344
REMARK  144  A    between atoms: _347  and  _349
REMARK  145  A    between atoms: _349  and  _350
REMARK  146  A    between atoms: _349  and  _352
REMARK  147  A    between atoms: _352  and  _353
REMARK  148  A    between atoms: _356  and  _358
REMARK  149  A    between atoms: _358  and  _359
REMARK  150  A    between atoms: _358  and  _361
REMARK  151  A    between atoms: _361  and  _362
REMARK  152  A    between atoms: _365  and  _367
REMARK  153  A    between atoms: _367  and  _368
REMARK  154  A    between atoms: _367  and  _370
REMARK  155  A    between atoms: _370  and  _371
REMARK  156  A    between atoms: _374  and  _376
REMARK  157  A    between atoms: _376  and  _377
REMARK  158  A    between atoms: _376  and  _379
REMARK  159  A    between atoms: _379  and  _380
REMARK  160  A    between atoms: _383  and  _385
REMARK  161  A    between atoms: _385  and  _386
REMARK  162  A    between atoms: _385  and  _388
REMARK  163  A    between atoms: _388  and  _389
REMARK  164  A    between atoms: _389  and  _390
REMARK  165  A    between atoms: _390  and  _391
REMARK  166  A    between atoms: _391  and  _392
REMARK  167  A    between atoms: _396  and  _398
REMARK  168  A    between atoms: _398  and  _399
REMARK  169  A    between atoms: _398  and  _401
REMARK  170  A    between atoms: _401  and  _402
REMARK  171  A    between atoms: _402  and  _403
REMARK  172  A    between atoms: _405  and  _407
REMARK  173  A    between atoms: _407  and  _408
REMARK  174  A    between atoms: _407  and  _410
REMARK  175  A    between atoms: _413  and  _415
REMARK  176  A    between atoms: _415  and  _416
REMARK  177  A    between atoms: _418  and  _420
REMARK  178  A    between atoms: _420  and  _421
REMARK  179  A    between atoms: _423  and  _425
REMARK  180  A    between atoms: _425  and  _426
REMARK  181  A    between atoms: _425  and  _428
REMARK  182  A    between atoms: _428  and  _429
REMARK  183  A    between atoms: _432  and  _434
REMARK  184  A    between atoms: _434  and  _435
REMARK  185  A    between atoms: _437  and  _439
REMARK  186  A    between atoms: _439  and  _440
REMARK  187  A    between atoms: _442  and  _444
REMARK  188  A    between atoms: _444  and  _445
REMARK  189  A    between atoms: _444  and  _447
REMARK  190  A    between atoms: _447  and  _448
REMARK  191  A    between atoms: _454  and  _456
REMARK  192  A    between atoms: _456  and  _457
REMARK  193  A    between atoms: _456  and  _459
REMARK  194  A    between atoms: _459  and  _460
REMARK  195  A    between atoms: _463  and  _465
REMARK  196  A    between atoms: _465  and  _466
REMARK  197  A    between atoms: _465  and  _468
REMARK  198  A    between atoms: _471  and  _473
REMARK  199  A    between atoms: _473  and  _474
REMARK  200  A    between atoms: _473  and  _476
REMARK  201  A    between atoms: _476  and  _477
REMARK  202  A    between atoms: _480  and  _482
REMARK  203  A    between atoms: _482  and  _483
REMARK  204  A    between atoms: _482  and  _485
REMARK  205  A    between atoms: _485  and  _486
REMARK  206  A    between atoms: _490  and  _491
REMARK  207  A    between atoms: _496  and  _498
REMARK  208  A    between atoms: _498  and  _499
REMARK  209  A    between atoms: _498  and  _501
REMARK  210  A    between atoms: _501  and  _502
REMARK  211  A    between atoms: _505  and  _507
REMARK  212  A    between atoms: _507  and  _508
REMARK  213  A    between atoms: _507  and  _510
REMARK  214  A    between atoms: _510  and  _511
REMARK  215  A    between atoms: _516  and  _518
REMARK  216  A    between atoms: _518  and  _519
REMARK  217  A    between atoms: _518  and  _521
REMARK  218  A    between atoms: _521  and  _522
REMARK  219  A    between atoms: _525  and  _527
REMARK  220  A    between atoms: _527  and  _528
REMARK  221  A    between atoms: _527  and  _530
REMARK  222  A    between atoms: _530  and  _531
REMARK  223  A    between atoms: _534  and  _536
REMARK  224  A    between atoms: _536  and  _537
REMARK  225  A    between atoms: _539  and  _541
REMARK  226  A    between atoms: _541  and  _542
REMARK  227  A    between atoms: _541  and  _544
REMARK  228  A    between atoms: _544  and  _545
REMARK  229  A    between atoms: _545  and  _546
REMARK  230  A    between atoms: _546  and  _547
REMARK                            x       y       z     vdW  Elec       q    Type
REMARK                         _______ _______ _______ _____ _____    ______ ____
ROOT
ATOM      1  NE  ARG A   1      23.073  21.715   8.660  0.00  0.00    -0.265 N 
ATOM      2  HE  ARG A   1      22.297  22.183   9.170  0.00  0.00    +0.259 HD
ATOM      3  CZ  ARG A   1      22.894  20.461   8.293  0.00  0.00    +0.342 C 
ATOM      4  NH2 ARG A   1      21.824  19.810   8.731  0.00  0.00    -0.292 N 
ATOM      5 HH21 ARG A   1      21.143  20.289   9.354  0.00  0.00    +0.255 HD
ATOM      6 HH22 ARG A   1      21.667  18.821   8.452  0.00  0.00    +0.255 HD
ATOM      7  NH1 ARG A   1      23.832  19.808   7.609  0.00  0.00    -0.292 N 
ATOM      8 HH11 ARG A   1      24.720  20.287   7.357  0.00  0.00    +0.255 HD
ATOM      9 HH12 ARG A   1      23.676  18.819   7.327  0.00  0.00    +0.255 HD
ENDROOT
BRANCH   1  10
ATOM     10  CD  ARG A   1      24.275  22.491   8.405  0.00  0.00    +0.174 C 
BRANCH  10  11
ATOM     11  CG  ARG A   1      24.604  22.878   6.997  0.00  0.00    +0.045 C 
BRANCH  11  12
ATOM     12  CB  ARG A   1      25.464  24.071   7.301  0.00  0.00    +0.029 C 
BRANCH  12  13
ATOM     13  CA  ARG A   1      26.034  24.942   6.245  0.00  0.00    +0.133 C 
BRANCH  13  14
ATOM     14  N   ARG A   1      27.320  24.385   5.837  0.00  0.00    -0.239 NA
ATOM     15  H   ARG A   1      27.649  23.511   6.294  0.00  0.00    +0.142 HD
ENDBRANCH  13  14
BRANCH  13  16
ATOM     16  C   ARG A   1      26.195  26.368   6.796  0.00  0.00    +0.224 C 
ATOM     17  O   ARG A   1      27.179  26.593   7.514  0.00  0.00    -0.287 OA
ENDBRANCH  13  16
ENDBRANCH  12  13
ENDBRANCH  11  12
ENDBRANCH  10  11
ENDBRANCH   1  10
TORSDOF 6
REMARK  Name = ../refined-set-2016/1tcx/1tcx_pocket.pdb
REMARK  230 active torsions:
REMARK  status: ('A' for Active; 'I' for Inactive)
REMARK    1  A    between atoms: _1  and  _3
REMARK    2  A    between atoms: _3  and  _4
REMARK    3  A    between atoms: _3  and  _6
REMARK    4  A    between atoms: _6  and  _7
REMARK    5  A    between atoms: _7  and  _8
REMARK    6  A    between atoms: _8  and  _9
REMARK    7  A    between atoms: _18  and  _20
REMARK    8  A    between atoms: _20  and  _21
REMARK    9  A    between atoms: _20  and  _23
REMARK   10  A    between atoms: _23  and  _24
REMARK   11  A    between atoms: _27  and  _29
REMARK   12  A    between atoms: _29  and  _30
REMARK   13  A    between atoms: _29  and  _32
REMARK   14  A    between atoms: _32  and  _33
REMARK   15  A    between atoms: _36  and  _38
REMARK   16  A    between atoms: _38  and  _39
REMARK   17  A    between atoms: _38  and  _41
REMARK   18  A    between atoms: _41  and  _42
REMARK   19  A    between atoms: _45  and  _47
REMARK   20  A    between atoms: _47  and  _48
REMARK   21  A    between atoms: _47  and  _50
REMARK   22  A    between atoms: _50  and  _51
REMARK   23  A    between atoms: _54  and  _56
REMARK   24  A    between atoms: _56  and  _57
REMARK   25  A    between atoms: _59  and  _61
REMARK   26  A    between atoms: _61  and  _62
REMARK   27  A    between atoms: _65  and  _67
REMARK   28  A    between atoms: _67  and  _68
REMARK   29  A    between atoms: _67  and  _70
REMARK   30  A    between atoms: _70  and  _71
REMARK   31  A    between atoms: _74  and  _76
REMARK   32  A    between atoms: _76  and  _77
REMARK   33  A    between atoms: _76  and  _79
REMARK   34  A    between atoms: _79  and  _80
REMARK   35  A    between atoms: _83  and  _85
REMARK   36  A    between atoms: _85  and  _86
REMARK   37  A    between atoms: _85  and  _88
REMARK   38  A    between atoms: _88  and  _89
REMARK   39  A    between atoms: _92  and  _94
REMARK   40  A    between atoms: _94  and  _95
REMARK   41  A    between atoms: _94  and  _97
REMARK   42  A    between atoms: _97  and  _98
REMARK   43  A    between atoms: _101  and  _103
REMARK   44  A    between atoms: _103  and  _104
REMARK   45  A    between atoms: _103  and  _106
REMARK   46  A    between atoms: _106  and  _107
REMARK   47  A    between atoms: _107  and  _108
REMARK   48  A    between atoms: _108  and  _109
REMARK   49  A    between atoms: _109  and  _110
REMARK   50  A    between atoms: _114  and  _116
REMARK   51  A    between atoms: _116  and  _117
REMARK   52  A    between atoms: _116  and  _119
REMARK   53  A    between atoms: _119  and  _120
REMARK   54  A    between atoms: _120  and  _121
REMARK   55  A    between atoms: _123  and  _125
REMARK   56  A    between atoms: _125  and  _126
REMARK   57  A    between atoms: _125  and  _128
REMARK   58  A    between atoms: _131  and  _133
REMARK   59  A    between atoms: _133  and  _134
REMARK   60  A    between atoms: _136  and  _138
REMARK   61  A    between atoms: _138  and  _139
REMARK   62  A    between atoms: _141  and  _143
REMARK   63  A    between atoms: _143  and  _144
REMARK   64  A    between atoms: _143  and  _146
REMARK   65  A    between atoms: _146  and  _147
REMARK   66  A    between atoms: _150  and  _152
REMARK   67  A    between atoms: _152  and  _153
REMARK   68  A    between atoms: _155  and  _157
REMARK   69  A    between atoms: _157  and  _158
REMARK   70  A    between atoms: _160  and  _162
REMARK   71  A    between atoms: _162  and  _163
REMARK   72  A    between atoms: _162  and  _165
REMARK   73  A    between atoms: _165  and  _166
REMARK   74  A    between atoms: _172  and  _174
REMARK   75  A    between atoms: _174  and  _175
REMARK   76  A    between atoms: _174  and  _177
REMARK   77  A    between atoms: _177  and  _178
REMARK   78  A    between atoms: _181  and  _183
REMARK   79  A    between atoms: _183  and  _184
REMARK   80  A    between atoms: _183  and  _186
REMARK   81  A    between atoms: _189  and  _191
REMARK   82  A    between atoms: _191  and  _192
REMARK   83  A    between atoms: _191  and  _194
REMARK   84  A    between atoms: _194  and  _195
REMARK   85  A    between atoms: _198  and  _200
REMARK   86  A    between atoms: _200  and  _201
REMARK   87  A    between atoms: _200  and  _203
REMARK   88  A    between atoms: _203  and  _204
REMARK   89  A    between atoms: _208  and  _209
REMARK   90  A    between atoms: _214  and  _216
REMARK   91  A    between atoms: _216  and  _217
REMARK   92  A    between atoms: _216  and  _219
REMARK   93  A    between atoms: _219  and  _220
REMARK   94  A    between atoms: _223  and  _225
REMARK   95  A    between atoms: _225  and  _226
REMARK   96  A    between atoms: _225  and  _228
REMARK   97  A    between atoms: _228  and  _229
REMARK   98  A    between atoms: _234  and  _236
REMARK   99  A    between atoms: _236  and  _237
REMARK  100  A    between atoms: _236  and  _239
REMARK  101  A    between atoms: _239  and  _240
REMARK  102  A    between atoms: _243  and  _245
REMARK  103  A    between atoms: _245  and  _246
REMARK  104  A    between atoms: _245  and  _248
REMARK  105  A    between atoms: _248  and  _249
REMARK  106  A    between atoms: _252  and  _254
REMARK  107  A    between atoms: _254  and  _255
REMARK  108  A    between atoms: _257  and  _259
REMARK  109  A    between atoms: _259  and  _260
REMARK  110  A    between atoms: _259  and  _262
REMARK  111  A    between atoms: _262  and  _263
REMARK  112  A    between atoms: _263  and  _264
REMARK  113  A    between atoms: _264  and  _265
REMARK  114  A    between atoms: _274  and  _276
REMARK  115  A    between atoms: _276  and  _277
REMARK  116  A    between atoms: _276  and  _279
REMARK  117  A    between atoms: _279  and  _280
REMARK  118  A    between atoms: _280  and  _281
REMARK  119  A    between atoms: _281  and  _282
REMARK  120  A    between atoms: _291  and  _293
REMARK  121  A    between atoms: _293  and  _294
REMARK  122  A    between atoms: _293  and  _296
REMARK  123  A    between atoms: _296  and  _297
REMARK  124  A    between atoms: _300  and  _302
REMARK  125  A    between atoms: _302  and  _303
REMARK  126  A    between atoms: _302  and  _305
REMARK  127  A    between atoms: _305  and  _306
REMARK  128  A    between atoms: _309  and  _311
REMARK  129  A    between atoms: _311  and  _312
REMARK  130  A    between atoms: _311  and  _314
REMARK  131  A    between atoms: _314  and  _315
REMARK  132  A    between atoms: _318  and  _320
REMARK  133  A    between atoms: _320  and  _321
REMARK  134  A    between atoms: _320  and  _323
REMARK  135  A    between atoms: _323  and  _324
REMARK  136  A    between atoms: _327  and  _329
REMARK  137  A    between atoms: _329  and  _330
REMARK  138  A    between atoms: _329  and  _332
REMARK  139  A    between atoms: _332  and  _333
REMARK  140  A    between atoms: _336  and  _338
REMARK  141  A    between atoms: _338  and  _339
REMARK  142  A    between atoms: _341  and  _343
REMARK  143  A    between atoms: _343  and  _344
REMARK  144  A    between atoms: _347  and  _349
REMARK  145  A    between atoms: _349  and  _350
REMARK  146  A    between atoms: _349  and  _352
REMARK  147  A    between atoms: _352  and  _353
REMARK  148  A    between atoms: _356  and  _358
REMARK  149  A    between atoms: _358  and  _359
REMARK  150  A    between atoms: _358  and  _361
REMARK  151  A    between atoms: _361  and  _362
REMARK  152  A    between atoms: _365  and  _367
REMARK  153  A    between atoms: _367  and  _368
REMARK  154  A    between atoms: _367  and  _370
REMARK  155  A    between atoms: _370  and  _371
REMARK  156  A    between atoms: _374  and  _376
REMARK  157  A    between atoms: _376  and  _377
REMARK  158  A    between atoms: _376  and  _379
REMARK  159  A    between atoms: _379  and  _380
REMARK  160  A    between atoms: _383  and  _385
REMARK  161  A    between atoms: _385  and  _386
REMARK  162  A    between atoms: _385  and  _388
REMARK  163  A    between atoms: _388  and  _389
REMARK  164  A    between atoms: _389  and  _390
REMARK  165  A    between atoms: _390  and  _391
REMARK  166  A    between atoms: _391  and  _392
REMARK  167  A    between atoms: _396  and  _398
REMARK  168  A    between atoms: _398  and  _399
REMARK  169  A    between atoms: _398  and  _401
REMARK  170  A    between atoms: _401  and  _402
REMARK  171  A    between atoms: _402  and  _403
REMARK  172  A    between atoms: _405  and  _407
REMARK  173  A    between atoms: _407  and  _408
REMARK  174  A    between atoms: _407  and  _410
REMARK  175  A    between atoms: _413  and  _415
REMARK  176  A    between atoms: _415  and  _416
REMARK  177  A    between atoms: _418  and  _420
REMARK  178  A    between atoms: _420  and  _421
REMARK  179  A    between atoms: _423  and  _425
REMARK  180  A    between atoms: _425  and  _426
REMARK  181  A    between atoms: _425  and  _428
REMARK  182  A    between atoms: _428  and  _429
REMARK  183  A    between atoms: _432  and  _434
REMARK  184  A    between atoms: _434  and  _435
REMARK  185  A    between atoms: _437  and  _439
REMARK  186  A    between atoms: _439  and  _440
REMARK  187  A    between atoms: _442  and  _444
REMARK  188  A    between atoms: _444  and  _445
REMARK  189  A    between atoms: _444  and  _447
REMARK  190  A    between atoms: _447  and  _448
REMARK  191  A    between atoms: _454  and  _456
REMARK  192  A    between atoms: _456  and  _457
REMARK  193  A    between atoms: _456  and  _459
REMARK  194  A    between atoms: _459  and  _460
REMARK  195  A    between atoms: _463  and  _465
REMARK  196  A    between atoms: _465  and  _466
REMARK  197  A    between atoms: _465  and  _468
REMARK  198  A    between atoms: _471  and  _473
REMARK  199  A    between atoms: _473  and  _474
REMARK  200  A    between atoms: _473  and  _476
REMARK  201  A    between atoms: _476  and  _477
REMARK  202  A    between atoms: _480  and  _482
REMARK  203  A    between atoms: _482  and  _483
REMARK  204  A    between atoms: _482  and  _485
REMARK  205  A    between atoms: _485  and  _486
REMARK  206  A    between atoms: _490  and  _491
REMARK  207  A    between atoms: _496  and  _498
REMARK  208  A    between atoms: _498  and  _499
REMARK  209  A    between atoms: _498  and  _501
REMARK  210  A    between atoms: _501  and  _502
REMARK  211  A    between atoms: _505  and  _507
REMARK  212  A    between atoms: _507  and  _508
REMARK  213  A    between atoms: _507  and  _510
REMARK  214  A    between atoms: _510  and  _511
REMARK  215  A    between atoms: _516  and  _518
REMARK  216  A    between atoms: _518  and  _519
REMARK  217  A    between atoms: _518  and  _521
REMARK  218  A    between atoms: _521  and  _522
REMARK  219  A    between atoms: _525  and  _527
REMARK  220  A    between atoms: _527  and  _528
REMARK  221  A    between atoms: _527  and  _530
REMARK  222  A    between atoms: _530  and  _531
REMARK  223  A    between atoms: _534  and  _536
REMARK  224  A    between atoms: _536  and  _537
REMARK  225  A    between atoms: _539  and  _541
REMARK  226  A    between atoms: _541  and  _542
REMARK  227  A    between atoms: _541  and  _544
REMARK  228  A    between atoms: _544  and  _545
REMARK  229  A    between atoms: _545  and  _546
REMARK  230  A    between atoms: _546  and  _547
REMARK                            x       y       z     vdW  Elec       q    Type
REMARK                         _______ _______ _______ _____ _____    ______ ____
ROOT
ATOM      1  C   GLY A   5      12.838  28.536   3.478  0.00  0.00    +0.243 C 
ATOM      2  N   ALA A   6      13.185  29.241   4.554  0.00  0.00    -0.297 N 
ATOM      3  H   ALA A   6      14.131  29.674   4.545  0.00  0.00    +0.150 HD
ATOM      4  O   GLY A   5      11.756  27.957   3.400  0.00  0.00    -0.273 OA
ENDROOT
BRANCH   2   5
ATOM      5  CA  ALA A   6      12.366  29.468   5.751  0.00  0.00    +0.149 C 
ATOM      6  CB  ALA A   6      13.220  29.472   6.999  0.00  0.00    +0.031 C 
BRANCH   5   7
ATOM      7  C   ALA A   6      11.616  30.794   5.743  0.00  0.00    +0.241 C 
ATOM      8  O   ALA A   6      12.251  31.842   5.815  0.00  0.00    -0.273 OA
ATOM      9  N   ASP A   7      10.305  30.845   5.624  0.00  0.00    -0.297 N 
ATOM     10  H   ASP A   7       9.760  29.966   5.517  0.00  0.00    +0.150 HD
BRANCH   9  11
ATOM     11  CA  ASP A   7       9.622  32.117   5.642  0.00  0.00    +0.160 C 
BRANCH  11  12
ATOM     12  C   ASP A   7       9.783  32.836   6.973  0.00  0.00    +0.241 C 
ATOM     13  N   ASP A   8       9.667  32.097   8.094  0.00  0.00    -0.297 N 
ATOM     14  H   ASP A   8       9.495  31.077   7.983  0.00  0.00    +0.150 HD
ATOM     15  O   ASP A   7      10.068  34.036   6.953  0.00  0.00    -0.273 OA
BRANCH  13  16
ATOM     16  CA  ASP A   8       9.766  32.624   9.461  0.00  0.00    +0.160 C 
BRANCH  16  17
ATOM     17  C   ASP A   8      10.958  32.100  10.214  0.00  0.00    +0.241 C 
ATOM     18  N   THR A   9      11.302  32.755  11.320  0.00  0.00    -0.295 N 
ATOM     19  H   THR A   9      10.749  33.594  11.588  0.00  0.00    +0.150 HD
ATOM     20  O   ASP A   8      11.526  31.100   9.787  0.00  0.00    -0.273 OA
BRANCH  18  21
ATOM     21  CA  THR A   9      12.409  32.359  12.171  0.00  0.00    +0.176 C 
BRANCH  21  22
ATOM     22  C   THR A   9      11.814  31.441  13.246  0.00  0.00    +0.243 C 
ATOM     23  O   THR A   9      10.762  31.761  13.824  0.00  0.00    -0.273 OA
ATOM     24  N   ILE A  10      12.449  30.286  13.478  0.00  0.00    -0.298 N 
ATOM     25  H   ILE A  10      13.314  30.085  12.938  0.00  0.00    +0.150 HD
BRANCH  24  26
ATOM     26  CA  ILE A  10      11.991  29.284  14.456  0.00  0.00    +0.137 C 
BRANCH  26  27
ATOM     27  CB  ILE A  10      11.591  27.865  13.870  0.00  0.00    +0.026 C 
ATOM     28  CG2 ILE A  10      10.487  27.213  14.745  0.00  0.00    +0.002 C 
BRANCH  27  29
ATOM     29  CG1 ILE A  10      11.229  28.016  12.379  0.00  0.00    +0.002 C 
ATOM     30  CD1 ILE A  10       9.769  28.130  12.000  0.00  0.00    +0.000 C 
ENDBRANCH  27  29
ENDBRANCH  26  27
BRANCH  26  31
ATOM     31  C   ILE A  10      13.160  28.960  15.357  0.00  0.00    +0.227 C 
ATOM     32  O   ILE A  10      14.217  28.614  14.805  0.00  0.00    -0.286 OA
ENDBRANCH  26  31
ENDBRANCH  24  26
ENDBRANCH  21  22
BRANCH  21  33
ATOM     33  CB  THR A   9      13.017  33.602  12.751  0.00  0.00    +0.137 C 
ATOM     34  CG2 THR A   9      14.025  33.351  13.857  0.00  0.00    +0.034 C 
BRANCH  33  35
ATOM     35  OG1 THR A   9      13.655  34.221  11.627  0.00  0.00    -0.382 OA
ATOM     36  HG1 THR A   9      12.977  34.421  10.934  0.00  0.00    +0.210 HD
ENDBRANCH  33  35
ENDBRANCH  21  33
ENDBRANCH  18  21
ENDBRANCH  16  17
BRANCH  16  37
ATOM     37  CB  ASP A   8       8.561  32.226  10.293  0.00  0.00    +0.143 C 
BRANCH  37  38
ATOM     38  CG  ASP A   8       7.189  32.369   9.642  0.00  0.00    +0.367 C 
ATOM     39  OD2 ASP A   8       6.716  33.545   9.617  0.00  0.00    -0.246 OA
ATOM     40  OD1 ASP A   8       6.623  31.315   9.191  0.00  0.00    -0.246 OA
ENDBRANCH  37  38
ENDBRANCH  16  37
ENDBRANCH  13  16
ENDBRANCH  11  12
BRANCH  11  41
ATOM     41  CB  ASP A   7       8.163  31.924   5.410  0.00  0.00    +0.143 C 
BRANCH  41  42
ATOM     42  CG  ASP A   7       7.751  31.526   4.012  0.00  0.00    +0.367 C 
ATOM     43  OD2 ASP A   7       6.542  31.307   3.881  0.00  0.00    -0.246 OA
ATOM     44  OD1 ASP A   7       8.558  31.418   3.070  0.00  0.00    -0.246 OA
ENDBRANCH  41  42
ENDBRANCH  11  41
ENDBRANCH   9  11
ENDBRANCH   5   7
ENDBRANCH   2   5
BRANCH   1  45
ATOM     45  CA  GLY A   5      13.838  28.422   2.344  0.00  0.00    +0.176 C 
BRANCH  45  47
ATOM     46  C   THR A   4      15.124  30.500   2.222  0.00  0.00    +0.243 C 
ATOM     47  N   GLY A   5      15.061  29.206   2.569  0.00  0.00    -0.295 N 
ATOM     48  H   GLY A   5      15.889  28.751   3.003  0.00  0.00    +0.150 HD
ATOM     49  O   THR A   4      14.176  31.055   1.636  0.00  0.00    -0.273 OA
BRANCH  46  50
ATOM     50  CA  THR A   4      16.365  31.326   2.610  0.00  0.00    +0.176 C 
BRANCH  50  53
ATOM     51  C   ASP A   3      16.890  30.543   4.849  0.00  0.00    +0.241 C 
ATOM     52  O   ASP A   3      15.805  30.953   5.232  0.00  0.00    -0.273 OA
ATOM     53  N   THR A   4      17.214  30.617   3.550  0.00  0.00    -0.295 N 
ATOM     54  H   THR A   4      18.085  30.160   3.212  0.00  0.00    +0.150 HD
BRANCH  51  55
ATOM     55  CA  ASP A   3      17.782  29.790   5.841  0.00  0.00    +0.160 C 
BRANCH  55  57
ATOM     56  C   LEU A   2      19.913  30.570   6.685  0.00  0.00    +0.241 C 
ATOM     57  N   ASP A   3      18.590  30.533   6.779  0.00  0.00    -0.297 N 
ATOM     58  H   ASP A   3      18.123  31.053   7.549  0.00  0.00    +0.150 HD
ATOM     59  O   LEU A   2      20.566  30.022   5.777  0.00  0.00    -0.273 OA
BRANCH  56  60
ATOM     60  CA  LEU A   2      20.595  31.376   7.775  0.00  0.00    +0.149 C 
BRANCH  60  63
ATOM     61  C   LEU A   1      20.522  29.647   9.549  0.00  0.00    +0.238 C 
ATOM     62  O   LEU A   1      19.354  29.939   9.808  0.00  0.00    -0.274 OA
ATOM     63  N   LEU A   2      21.185  30.305   8.591  0.00  0.00    -0.297 N 
ATOM     64  H   LEU A   2      22.176  30.043   8.413  0.00  0.00    +0.150 HD
BRANCH  61  65
ATOM     65  CA  LEU A   1      21.161  28.518  10.370  0.00  0.00    +0.145 C 
BRANCH  65  66
ATOM     66  N   LEU A   1      21.008  28.742  11.802  0.00  0.00    -0.238 NA
ATOM     67  H   LEU A   1      20.193  28.309  12.282  0.00  0.00    +0.142 HD
ENDBRANCH  65  66
BRANCH  65  68
ATOM     68  CB  LEU A   1      20.507  27.185  10.039  0.00  0.00    +0.026 C 
BRANCH  68  69
ATOM     69  CG  LEU A   1      20.629  26.717   8.594  0.00  0.00    +0.002 C 
ATOM     70  CD2 LEU A   1      19.895  25.388   8.455  0.00  0.00    +0.000 C 
ATOM     71  CD1 LEU A   1      22.079  26.552   8.213  0.00  0.00    +0.000 C 
ENDBRANCH  68  69
ENDBRANCH  65  68
ENDBRANCH  61  65
ENDBRANCH  60  63
BRANCH  60  72
ATOM     72  CB  LEU A   2      21.661  32.352   7.127  0.00  0.00    +0.029 C 
BRANCH  72  73
ATOM     73  CG  LEU A   2      22.632  33.050   8.130  0.00  0.00    +0.002 C 
ATOM     74  CD2 LEU A   2      21.817  33.752   9.214  0.00  0.00    +0.000 C 
ATOM     75  CD1 LEU A   2      23.525  34.058   7.413  0.00  0.00    +0.000 C 
ENDBRANCH  72  73
ENDBRANCH  60  72
ENDBRANCH  56  60
ENDBRANCH  55  57
BRANCH  55  76
ATOM     76  CB  ASP A   3      16.999  28.822   6.733  0.00  0.00    +0.143 C 
BRANCH  76  77
ATOM     77  CG  ASP A   3      16.324  27.663   6.012  0.00  0.00    +0.367 C 
ATOM     78  OD2 ASP A   3      15.792  26.828   6.729  0.00  0.00    -0.246 OA
ATOM     79  OD1 ASP A   3      16.306  27.548   4.763  0.00  0.00    -0.246 OA
ENDBRANCH  76  77
ENDBRANCH  55  76
ENDBRANCH  51  55
ENDBRANCH  50  53
BRANCH  50  80
ATOM     80  CB  THR A   4      17.142  31.715   1.324  0.00  0.00    +0.137 C 
ATOM     81  CG2 THR A   4      18.345  32.614   1.630  0.00  0.00    +0.034 C 
BRANCH  80  82
ATOM     82  OG1 THR A   4      17.604  30.519   0.701  0.00  0.00    -0.382 OA
ATOM     83  HG1 THR A   4      16.829  29.948   0.470  0.00  0.00    +0.210 HD
ENDBRANCH  80  82
ENDBRANCH  50  80
ENDBRANCH  46  50
ENDBRANCH  45  47
ENDBRANCH   1  45
TORSDOF 36
REMARK  Name = ../refined-set-2016/1tcx/1tcx_pocket.pdb
REMARK  230 active torsions:
REMARK  status: ('A' for Active; 'I' for Inactive)
REMARK    1  A    between atoms: _1  and  _3
REMARK    2  A    between atoms: _3  and  _4
REMARK    3  A    between atoms: _3  and  _6
REMARK    4  A    between atoms: _6  and  _7
REMARK    5  A    between atoms: _7  and  _8
REMARK    6  A    between atoms: _8  and  _9
REMARK    7  A    between atoms: _18  and  _20
REMARK    8  A    between atoms: _20  and  _21
REMARK    9  A    between atoms: _20  and  _23
REMARK   10  A    between atoms: _23  and  _24
REMARK   11  A    between atoms: _27  and  _29
REMARK   12  A    between atoms: _29  and  _30
REMARK   13  A    between atoms: _29  and  _32
REMARK   14  A    between atoms: _32  and  _33
REMARK   15  A    between atoms: _36  and  _38
REMARK   16  A    between atoms: _38  and  _39
REMARK   17  A    between atoms: _38  and  _41
REMARK   18  A    between atoms: _41  and  _42
REMARK   19  A    between atoms: _45  and  _47
REMARK   20  A    between atoms: _47  and  _48
REMARK   21  A    between atoms: _47  and  _50
REMARK   22  A    between atoms: _50  and  _51
REMARK   23  A    between atoms: _54  and  _56
REMARK   24  A    between atoms: _56  and  _57
REMARK   25  A    between atoms: _59  and  _61
REMARK   26  A    between atoms: _61  and  _62
REMARK   27  A    between atoms: _65  and  _67
REMARK   28  A    between atoms: _67  and  _68
REMARK   29  A    between atoms: _67  and  _70
REMARK   30  A    between atoms: _70  and  _71
REMARK   31  A    between atoms: _74  and  _76
REMARK   32  A    between atoms: _76  and  _77
REMARK   33  A    between atoms: _76  and  _79
REMARK   34  A    between atoms: _79  and  _80
REMARK   35  A    between atoms: _83  and  _85
REMARK   36  A    between atoms: _85  and  _86
REMARK   37  A    between atoms: _85  and  _88
REMARK   38  A    between atoms: _88  and  _89
REMARK   39  A    between atoms: _92  and  _94
REMARK   40  A    between atoms: _94  and  _95
REMARK   41  A    between atoms: _94  and  _97
REMARK   42  A    between atoms: _97  and  _98
REMARK   43  A    between atoms: _101  and  _103
REMARK   44  A    between atoms: _103  and  _104
REMARK   45  A    between atoms: _103  and  _106
REMARK   46  A    between atoms: _106  and  _107
REMARK   47  A    between atoms: _107  and  _108
REMARK   48  A    between atoms: _108  and  _109
REMARK   49  A    between atoms: _109  and  _110
REMARK   50  A    between atoms: _114  and  _116
REMARK   51  A    between atoms: _116  and  _117
REMARK   52  A    between atoms: _116  and  _119
REMARK   53  A    between atoms: _119  and  _120
REMARK   54  A    between atoms: _120  and  _121
REMARK   55  A    between atoms: _123  and  _125
REMARK   56  A    between atoms: _125  and  _126
REMARK   57  A    between atoms: _125  and  _128
REMARK   58  A    between atoms: _131  and  _133
REMARK   59  A    between atoms: _133  and  _134
REMARK   60  A    between atoms: _136  and  _138
REMARK   61  A    between atoms: _138  and  _139
REMARK   62  A    between atoms: _141  and  _143
REMARK   63  A    between atoms: _143  and  _144
REMARK   64  A    between atoms: _143  and  _146
REMARK   65  A    between atoms: _146  and  _147
REMARK   66  A    between atoms: _150  and  _152
REMARK   67  A    between atoms: _152  and  _153
REMARK   68  A    between atoms: _155  and  _157
REMARK   69  A    between atoms: _157  and  _158
REMARK   70  A    between atoms: _160  and  _162
REMARK   71  A    between atoms: _162  and  _163
REMARK   72  A    between atoms: _162  and  _165
REMARK   73  A    between atoms: _165  and  _166
REMARK   74  A    between atoms: _172  and  _174
REMARK   75  A    between atoms: _174  and  _175
REMARK   76  A    between atoms: _174  and  _177
REMARK   77  A    between atoms: _177  and  _178
REMARK   78  A    between atoms: _181  and  _183
REMARK   79  A    between atoms: _183  and  _184
REMARK   80  A    between atoms: _183  and  _186
REMARK   81  A    between atoms: _189  and  _191
REMARK   82  A    between atoms: _191  and  _192
REMARK   83  A    between atoms: _191  and  _194
REMARK   84  A    between atoms: _194  and  _195
REMARK   85  A    between atoms: _198  and  _200
REMARK   86  A    between atoms: _200  and  _201
REMARK   87  A    between atoms: _200  and  _203
REMARK   88  A    between atoms: _203  and  _204
REMARK   89  A    between atoms: _208  and  _209
REMARK   90  A    between atoms: _214  and  _216
REMARK   91  A    between atoms: _216  and  _217
REMARK   92  A    between atoms: _216  and  _219
REMARK   93  A    between atoms: _219  and  _220
REMARK   94  A    between atoms: _223  and  _225
REMARK   95  A    between atoms: _225  and  _226
REMARK   96  A    between atoms: _225  and  _228
REMARK   97  A    between atoms: _228  and  _229
REMARK   98  A    between atoms: _234  and  _236
REMARK   99  A    between atoms: _236  and  _237
REMARK  100  A    between atoms: _236  and  _239
REMARK  101  A    between atoms: _239  and  _240
REMARK  102  A    between atoms: _243  and  _245
REMARK  103  A    between atoms: _245  and  _246
REMARK  104  A    between atoms: _245  and  _248
REMARK  105  A    between atoms: _248  and  _249
REMARK  106  A    between atoms: _252  and  _254
REMARK  107  A    between atoms: _254  and  _255
REMARK  108  A    between atoms: _257  and  _259
REMARK  109  A    between atoms: _259  and  _260
REMARK  110  A    between atoms: _259  and  _262
REMARK  111  A    between atoms: _262  and  _263
REMARK  112  A    between atoms: _263  and  _264
REMARK  113  A    between atoms: _264  and  _265
REMARK  114  A    between atoms: _274  and  _276
REMARK  115  A    between atoms: _276  and  _277
REMARK  116  A    between atoms: _276  and  _279
REMARK  117  A    between atoms: _279  and  _280
REMARK  118  A    between atoms: _280  and  _281
REMARK  119  A    between atoms: _281  and  _282
REMARK  120  A    between atoms: _291  and  _293
REMARK  121  A    between atoms: _293  and  _294
REMARK  122  A    between atoms: _293  and  _296
REMARK  123  A    between atoms: _296  and  _297
REMARK  124  A    between atoms: _300  and  _302
REMARK  125  A    between atoms: _302  and  _303
REMARK  126  A    between atoms: _302  and  _305
REMARK  127  A    between atoms: _305  and  _306
REMARK  128  A    between atoms: _309  and  _311
REMARK  129  A    between atoms: _311  and  _312
REMARK  130  A    between atoms: _311  and  _314
REMARK  131  A    between atoms: _314  and  _315
REMARK  132  A    between atoms: _318  and  _320
REMARK  133  A    between atoms: _320  and  _321
REMARK  134  A    between atoms: _320  and  _323
REMARK  135  A    between atoms: _323  and  _324
REMARK  136  A    between atoms: _327  and  _329
REMARK  137  A    between atoms: _329  and  _330
REMARK  138  A    between atoms: _329  and  _332
REMARK  139  A    between atoms: _332  and  _333
REMARK  140  A    between atoms: _336  and  _338
REMARK  141  A    between atoms: _338  and  _339
REMARK  142  A    between atoms: _341  and  _343
REMARK  143  A    between atoms: _343  and  _344
REMARK  144  A    between atoms: _347  and  _349
REMARK  145  A    between atoms: _349  and  _350
REMARK  146  A    between atoms: _349  and  _352
REMARK  147  A    between atoms: _352  and  _353
REMARK  148  A    between atoms: _356  and  _358
REMARK  149  A    between atoms: _358  and  _359
REMARK  150  A    between atoms: _358  and  _361
REMARK  151  A    between atoms: _361  and  _362
REMARK  152  A    between atoms: _365  and  _367
REMARK  153  A    between atoms: _367  and  _368
REMARK  154  A    between atoms: _367  and  _370
REMARK  155  A    between atoms: _370  and  _371
REMARK  156  A    between atoms: _374  and  _376
REMARK  157  A    between atoms: _376  and  _377
REMARK  158  A    between atoms: _376  and  _379
REMARK  159  A    between atoms: _379  and  _380
REMARK  160  A    between atoms: _383  and  _385
REMARK  161  A    between atoms: _385  and  _386
REMARK  162  A    between atoms: _385  and  _388
REMARK  163  A    between atoms: _388  and  _389
REMARK  164  A    between atoms: _389  and  _390
REMARK  165  A    between atoms: _390  and  _391
REMARK  166  A    between atoms: _391  and  _392
REMARK  167  A    between atoms: _396  and  _398
REMARK  168  A    between atoms: _398  and  _399
REMARK  169  A    between atoms: _398  and  _401
REMARK  170  A    between atoms: _401  and  _402
REMARK  171  A    between atoms: _402  and  _403
REMARK  172  A    between atoms: _405  and  _407
REMARK  173  A    between atoms: _407  and  _408
REMARK  174  A    between atoms: _407  and  _410
REMARK  175  A    between atoms: _413  and  _415
REMARK  176  A    between atoms: _415  and  _416
REMARK  177  A    between atoms: _418  and  _420
REMARK  178  A    between atoms: _420  and  _421
REMARK  179  A    between atoms: _423  and  _425
REMARK  180  A    between atoms: _425  and  _426
REMARK  181  A    between atoms: _425  and  _428
REMARK  182  A    between atoms: _428  and  _429
REMARK  183  A    between atoms: _432  and  _434
REMARK  184  A    between atoms: _434  and  _435
REMARK  185  A    between atoms: _437  and  _439
REMARK  186  A    between atoms: _439  and  _440
REMARK  187  A    between atoms: _442  and  _444
REMARK  188  A    between atoms: _444  and  _445
REMARK  189  A    between atoms: _444  and  _447
REMARK  190  A    between atoms: _447  and  _448
REMARK  191  A    between atoms: _454  and  _456
REMARK  192  A    between atoms: _456  and  _457
REMARK  193  A    between atoms: _456  and  _459
REMARK  194  A    between atoms: _459  and  _460
REMARK  195  A    between atoms: _463  and  _465
REMARK  196  A    between atoms: _465  and  _466
REMARK  197  A    between atoms: _465  and  _468
REMARK  198  A    between atoms: _471  and  _473
REMARK  199  A    between atoms: _473  and  _474
REMARK  200  A    between atoms: _473  and  _476
REMARK  201  A    between atoms: _476  and  _477
REMARK  202  A    between atoms: _480  and  _482
REMARK  203  A    between atoms: _482  and  _483
REMARK  204  A    between atoms: _482  and  _485
REMARK  205  A    between atoms: _485  and  _486
REMARK  206  A    between atoms: _490  and  _491
REMARK  207  A    between atoms: _496  and  _498
REMARK  208  A    between atoms: _498  and  _499
REMARK  209  A    between atoms: _498  and  _501
REMARK  210  A    between atoms: _501  and  _502
REMARK  211  A    between atoms: _505  and  _507
REMARK  212  A    between atoms: _507  and  _508
REMARK  213  A    between atoms: _507  and  _510
REMARK  214  A    between atoms: _510  and  _511
REMARK  215  A    between atoms: _516  and  _518
REMARK  216  A    between atoms: _518  and  _519
REMARK  217  A    between atoms: _518  and  _521
REMARK  218  A    between atoms: _521  and  _522
REMARK  219  A    between atoms: _525  and  _527
REMARK  220  A    between atoms: _527  and  _528
REMARK  221  A    between atoms: _527  and  _530
REMARK  222  A    between atoms: _530  and  _531
REMARK  223  A    between atoms: _534  and  _536
REMARK  224  A    between atoms: _536  and  _537
REMARK  225  A    between atoms: _539  and  _541
REMARK  226  A    between atoms: _541  and  _542
REMARK  227  A    between atoms: _541  and  _544
REMARK  228  A    between atoms: _544  and  _545
REMARK  229  A    between atoms: _545  and  _546
REMARK  230  A    between atoms: _546  and  _547
REMARK                            x       y       z     vdW  Elec       q    Type
REMARK                         _______ _______ _______ _____ _____    ______ ____
ROOT
ATOM      1  C   GLY A   5       8.209  20.234   5.745  0.00  0.00    +0.243 C 
ATOM      2  O   GLY A   5       7.110  19.674   5.550  0.00  0.00    -0.273 OA
ATOM      3  N   ILE A   6       9.404  19.689   5.469  0.00  0.00    -0.297 N 
ATOM      4  H   ILE A   6      10.263  20.259   5.602  0.00  0.00    +0.150 HD
ENDROOT
BRANCH   3   5
ATOM      5  CA  ILE A   6       9.531  18.304   4.982  0.00  0.00    +0.149 C 
BRANCH   5   6
ATOM      6  C   ILE A   6       9.128  17.513   6.222  0.00  0.00    +0.241 C 
ATOM      7  O   ILE A   6       9.401  17.930   7.374  0.00  0.00    -0.273 OA
ATOM      8  N   GLY A   7       8.396  16.440   5.991  0.00  0.00    -0.295 N 
ATOM      9  H   GLY A   7       8.121  16.171   5.025  0.00  0.00    +0.150 HD
BRANCH   8  10
ATOM     10  CA  GLY A   7       7.993  15.656   7.130  0.00  0.00    +0.176 C 
BRANCH  10  11
ATOM     11  C   GLY A   7       6.685  16.123   7.697  0.00  0.00    +0.243 C 
ATOM     12  O   GLY A   7       6.033  15.286   8.311  0.00  0.00    -0.273 OA
ATOM     13  N   GLY A   8       6.245  17.366   7.512  0.00  0.00    -0.295 N 
ATOM     14  H   GLY A   8       6.820  18.059   6.992  0.00  0.00    +0.150 HD
BRANCH  13  15
ATOM     15  CA  GLY A   8       4.948  17.736   8.050  0.00  0.00    +0.176 C 
BRANCH  15  16
ATOM     16  C   GLY A   8       4.973  18.938   8.955  0.00  0.00    +0.243 C 
ATOM     17  N   PHE A   9       3.951  18.993   9.788  0.00  0.00    -0.297 N 
ATOM     18  H   PHE A   9       3.328  18.164   9.862  0.00  0.00    +0.150 HD
ATOM     19  O   GLY A   8       5.907  19.750   8.900  0.00  0.00    -0.273 OA
BRANCH  17  20
ATOM     20  CA  PHE A   9       3.653  20.158  10.609  0.00  0.00    +0.153 C 
BRANCH  20  21
ATOM     21  C   PHE A   9       3.980  20.084  12.082  0.00  0.00    +0.241 C 
ATOM     22  N   ILE A  10       4.417  21.175  12.717  0.00  0.00    -0.298 N 
ATOM     23  H   ILE A  10       4.553  22.052  12.176  0.00  0.00    +0.150 HD
ATOM     24  O   PHE A   9       3.824  18.997  12.643  0.00  0.00    -0.273 OA
BRANCH  22  25
ATOM     25  CA  ILE A  10       4.712  21.174  14.160  0.00  0.00    +0.137 C 
BRANCH  25  26
ATOM     26  CB  ILE A  10       6.270  21.235  14.480  0.00  0.00    +0.026 C 
ATOM     27  CG2 ILE A  10       6.820  19.839  14.134  0.00  0.00    +0.002 C 
BRANCH  26  28
ATOM     28  CG1 ILE A  10       7.028  22.328  13.709  0.00  0.00    +0.002 C 
ATOM     29  CD1 ILE A  10       8.238  22.816  14.468  0.00  0.00    +0.000 C 
ENDBRANCH  26  28
ENDBRANCH  25  26
BRANCH  25  30
ATOM     30  C   ILE A  10       3.974  22.397  14.761  0.00  0.00    +0.227 C 
ATOM     31  O   ILE A  10       3.639  23.363  14.065  0.00  0.00    -0.286 OA
ENDBRANCH  25  30
ENDBRANCH  22  25
ENDBRANCH  20  21
BRANCH  20  32
ATOM     32  CB  PHE A   9       2.157  20.505  10.524  0.00  0.00    +0.055 C 
BRANCH  32  33
ATOM     33  CG  PHE A   9       1.751  21.096   9.219  0.00  0.00    -0.020 A 
ATOM     34  CD2 PHE A   9       1.567  22.475   9.113  0.00  0.00    -0.004 A 
ATOM     35  CE2 PHE A   9       1.239  23.052   7.895  0.00  0.00    -0.000 A 
ATOM     36  CZ  PHE A   9       1.085  22.246   6.775  0.00  0.00    -0.000 A 
ATOM     37  CE1 PHE A   9       1.258  20.873   6.882  0.00  0.00    -0.000 A 
ATOM     38  CD1 PHE A   9       1.590  20.292   8.092  0.00  0.00    -0.004 A 
ENDBRANCH  32  33
ENDBRANCH  20  32
ENDBRANCH  17  20
ENDBRANCH  15  16
ENDBRANCH  13  15
ENDBRANCH  10  11
ENDBRANCH   8  10
ENDBRANCH   5   6
BRANCH   5  39
ATOM     39  CB  ILE A   6      11.015  17.948   4.545  0.00  0.00    +0.027 C 
ATOM     40  CG2 ILE A   6      11.523  16.548   4.894  0.00  0.00    +0.002 C 
BRANCH  39  41
ATOM     41  CG1 ILE A   6      11.002  18.018   3.031  0.00  0.00    +0.002 C 
ATOM     42  CD1 ILE A   6      10.929  19.436   2.588  0.00  0.00    +0.000 C 
ENDBRANCH  39  41
ENDBRANCH   5  39
ENDBRANCH   3   5
BRANCH   1  43
ATOM     43  CA  GLY A   5       8.275  21.597   6.398  0.00  0.00    +0.176 C 
BRANCH  43  45
ATOM     44  C   GLY A   4       6.330  22.796   7.158  0.00  0.00    +0.243 C 
ATOM     45  N   GLY A   5       7.079  21.734   7.181  0.00  0.00    -0.295 N 
ATOM     46  H   GLY A   5       6.798  20.944   7.797  0.00  0.00    +0.150 HD
ATOM     47  O   GLY A   4       6.681  23.825   6.595  0.00  0.00    -0.273 OA
BRANCH  44  48
ATOM     48  CA  GLY A   4       5.056  22.807   7.953  0.00  0.00    +0.176 C 
BRANCH  48  51
ATOM     49  C   VAL A   3       4.523  24.191   9.915  0.00  0.00    +0.241 C 
ATOM     50  O   VAL A   3       4.618  23.200  10.628  0.00  0.00    -0.273 OA
ATOM     51  N   GLY A   4       4.738  24.080   8.609  0.00  0.00    -0.295 N 
ATOM     52  H   GLY A   4       4.678  24.937   8.023  0.00  0.00    +0.150 HD
BRANCH  49  53
ATOM     53  CA  VAL A   3       4.111  25.505  10.582  0.00  0.00    +0.149 C 
BRANCH  53  55
ATOM     54  C   MET A   2       1.992  25.657  11.872  0.00  0.00    +0.241 C 
ATOM     55  N   VAL A   3       3.237  25.172  11.735  0.00  0.00    -0.297 N 
ATOM     56  H   VAL A   3       3.605  24.535  12.470  0.00  0.00    +0.150 HD
ATOM     57  O   MET A   2       1.516  26.445  11.036  0.00  0.00    -0.273 OA
BRANCH  54  58
ATOM     58  CA  MET A   2       1.099  25.301  13.064  0.00  0.00    +0.149 C 
BRANCH  58  61
ATOM     59  C   LYS A   1       0.878  27.068  14.715  0.00  0.00    +0.238 C 
ATOM     60  O   LYS A   1       1.416  26.373  15.559  0.00  0.00    -0.274 OA
ATOM     61  N   MET A   2       0.662  26.611  13.506  0.00  0.00    -0.297 N 
ATOM     62  H   MET A   2       0.153  27.217  12.831  0.00  0.00    +0.150 HD
BRANCH  59  63
ATOM     63  CA  LYS A   1       0.429  28.463  15.117  0.00  0.00    +0.145 C 
BRANCH  63  64
ATOM     64  N   LYS A   1       0.401  28.555  16.567  0.00  0.00    -0.238 NA
ATOM     65  H   LYS A   1       1.109  28.037  17.125  0.00  0.00    +0.142 HD
ENDBRANCH  63  64
BRANCH  63  66
ATOM     66  CB  LYS A   1       1.400  29.519  14.652  0.00  0.00    +0.026 C 
BRANCH  66  67
ATOM     67  CG  LYS A   1       1.374  29.786  13.192  0.00  0.00    -0.000 C 
BRANCH  67  68
ATOM     68  CD  LYS A   1       2.552  30.651  12.861  0.00  0.00    -0.024 C 
BRANCH  68  69
ATOM     69  CE  LYS A   1       2.359  31.186  11.463  0.00  0.00    -0.086 C 
BRANCH  69  70
ATOM     70  NZ  LYS A   1       3.519  32.033  11.079  0.00  0.00    +0.380 N 
ATOM     71  HZ1 LYS A   1       3.600  32.829  11.743  0.00  0.00    -0.089 HD
ATOM     72  HZ2 LYS A   1       4.388  31.463  11.111  0.00  0.00    -0.089 HD
ATOM     73  HZ3 LYS A   1       3.377  32.397  10.115  0.00  0.00    -0.089 HD
ENDBRANCH  69  70
ENDBRANCH  68  69
ENDBRANCH  67  68
ENDBRANCH  66  67
ENDBRANCH  63  66
ENDBRANCH  59  63
ENDBRANCH  58  61
BRANCH  58  74
ATOM     74  CB  MET A   2      -0.072  24.485  12.585  0.00  0.00    +0.041 C 
BRANCH  74  75
ATOM     75  CG  MET A   2      -0.942  23.991  13.694  0.00  0.00    +0.060 C 
BRANCH  75  76
ATOM     76  SD  MET A   2      -0.112  22.604  14.405  0.00  0.00    -0.139 S 
ATOM     77  CE  MET A   2      -0.427  21.519  13.015  0.00  0.00    +0.069 C 
ENDBRANCH  75  76
ENDBRANCH  74  75
ENDBRANCH  58  74
ENDBRANCH  54  58
ENDBRANCH  53  55
BRANCH  53  78
ATOM     78  CB  VAL A   3       5.384  26.280  11.043  0.00  0.00    +0.027 C 
ATOM     79  CG2 VAL A   3       4.999  27.643  11.544  0.00  0.00    +0.002 C 
ATOM     80  CG1 VAL A   3       6.227  26.702   9.878  0.00  0.00    +0.002 C 
ENDBRANCH  53  78
ENDBRANCH  49  53
ENDBRANCH  48  51
ENDBRANCH  44  48
ENDBRANCH  43  45
ENDBRANCH   1  43
TORSDOF 35
REMARK  Name = ../refined-set-2016/1tcx/1tcx_pocket.pdb
REMARK  230 active torsions:
REMARK  status: ('A' for Active; 'I' for Inactive)
REMARK    1  A    between atoms: _1  and  _3
REMARK    2  A    between atoms: _3  and  _4
REMARK    3  A    between atoms: _3  and  _6
REMARK    4  A    between atoms: _6  and  _7
REMARK    5  A    between atoms: _7  and  _8
REMARK    6  A    between atoms: _8  and  _9
REMARK    7  A    between atoms: _18  and  _20
REMARK    8  A    between atoms: _20  and  _21
REMARK    9  A    between atoms: _20  and  _23
REMARK   10  A    between atoms: _23  and  _24
REMARK   11  A    between atoms: _27  and  _29
REMARK   12  A    between atoms: _29  and  _30
REMARK   13  A    between atoms: _29  and  _32
REMARK   14  A    between atoms: _32  and  _33
REMARK   15  A    between atoms: _36  and  _38
REMARK   16  A    between atoms: _38  and  _39
REMARK   17  A    between atoms: _38  and  _41
REMARK   18  A    between atoms: _41  and  _42
REMARK   19  A    between atoms: _45  and  _47
REMARK   20  A    between atoms: _47  and  _48
REMARK   21  A    between atoms: _47  and  _50
REMARK   22  A    between atoms: _50  and  _51
REMARK   23  A    between atoms: _54  and  _56
REMARK   24  A    between atoms: _56  and  _57
REMARK   25  A    between atoms: _59  and  _61
REMARK   26  A    between atoms: _61  and  _62
REMARK   27  A    between atoms: _65  and  _67
REMARK   28  A    between atoms: _67  and  _68
REMARK   29  A    between atoms: _67  and  _70
REMARK   30  A    between atoms: _70  and  _71
REMARK   31  A    between atoms: _74  and  _76
REMARK   32  A    between atoms: _76  and  _77
REMARK   33  A    between atoms: _76  and  _79
REMARK   34  A    between atoms: _79  and  _80
REMARK   35  A    between atoms: _83  and  _85
REMARK   36  A    between atoms: _85  and  _86
REMARK   37  A    between atoms: _85  and  _88
REMARK   38  A    between atoms: _88  and  _89
REMARK   39  A    between atoms: _92  and  _94
REMARK   40  A    between atoms: _94  and  _95
REMARK   41  A    between atoms: _94  and  _97
REMARK   42  A    between atoms: _97  and  _98
REMARK   43  A    between atoms: _101  and  _103
REMARK   44  A    between atoms: _103  and  _104
REMARK   45  A    between atoms: _103  and  _106
REMARK   46  A    between atoms: _106  and  _107
REMARK   47  A    between atoms: _107  and  _108
REMARK   48  A    between atoms: _108  and  _109
REMARK   49  A    between atoms: _109  and  _110
REMARK   50  A    between atoms: _114  and  _116
REMARK   51  A    between atoms: _116  and  _117
REMARK   52  A    between atoms: _116  and  _119
REMARK   53  A    between atoms: _119  and  _120
REMARK   54  A    between atoms: _120  and  _121
REMARK   55  A    between atoms: _123  and  _125
REMARK   56  A    between atoms: _125  and  _126
REMARK   57  A    between atoms: _125  and  _128
REMARK   58  A    between atoms: _131  and  _133
REMARK   59  A    between atoms: _133  and  _134
REMARK   60  A    between atoms: _136  and  _138
REMARK   61  A    between atoms: _138  and  _139
REMARK   62  A    between atoms: _141  and  _143
REMARK   63  A    between atoms: _143  and  _144
REMARK   64  A    between atoms: _143  and  _146
REMARK   65  A    between atoms: _146  and  _147
REMARK   66  A    between atoms: _150  and  _152
REMARK   67  A    between atoms: _152  and  _153
REMARK   68  A    between atoms: _155  and  _157
REMARK   69  A    between atoms: _157  and  _158
REMARK   70  A    between atoms: _160  and  _162
REMARK   71  A    between atoms: _162  and  _163
REMARK   72  A    between atoms: _162  and  _165
REMARK   73  A    between atoms: _165  and  _166
REMARK   74  A    between atoms: _172  and  _174
REMARK   75  A    between atoms: _174  and  _175
REMARK   76  A    between atoms: _174  and  _177
REMARK   77  A    between atoms: _177  and  _178
REMARK   78  A    between atoms: _181  and  _183
REMARK   79  A    between atoms: _183  and  _184
REMARK   80  A    between atoms: _183  and  _186
REMARK   81  A    between atoms: _189  and  _191
REMARK   82  A    between atoms: _191  and  _192
REMARK   83  A    between atoms: _191  and  _194
REMARK   84  A    between atoms: _194  and  _195
REMARK   85  A    between atoms: _198  and  _200
REMARK   86  A    between atoms: _200  and  _201
REMARK   87  A    between atoms: _200  and  _203
REMARK   88  A    between atoms: _203  and  _204
REMARK   89  A    between atoms: _208  and  _209
REMARK   90  A    between atoms: _214  and  _216
REMARK   91  A    between atoms: _216  and  _217
REMARK   92  A    between atoms: _216  and  _219
REMARK   93  A    between atoms: _219  and  _220
REMARK   94  A    between atoms: _223  and  _225
REMARK   95  A    between atoms: _225  and  _226
REMARK   96  A    between atoms: _225  and  _228
REMARK   97  A    between atoms: _228  and  _229
REMARK   98  A    between atoms: _234  and  _236
REMARK   99  A    between atoms: _236  and  _237
REMARK  100  A    between atoms: _236  and  _239
REMARK  101  A    between atoms: _239  and  _240
REMARK  102  A    between atoms: _243  and  _245
REMARK  103  A    between atoms: _245  and  _246
REMARK  104  A    between atoms: _245  and  _248
REMARK  105  A    between atoms: _248  and  _249
REMARK  106  A    between atoms: _252  and  _254
REMARK  107  A    between atoms: _254  and  _255
REMARK  108  A    between atoms: _257  and  _259
REMARK  109  A    between atoms: _259  and  _260
REMARK  110  A    between atoms: _259  and  _262
REMARK  111  A    between atoms: _262  and  _263
REMARK  112  A    between atoms: _263  and  _264
REMARK  113  A    between atoms: _264  and  _265
REMARK  114  A    between atoms: _274  and  _276
REMARK  115  A    between atoms: _276  and  _277
REMARK  116  A    between atoms: _276  and  _279
REMARK  117  A    between atoms: _279  and  _280
REMARK  118  A    between atoms: _280  and  _281
REMARK  119  A    between atoms: _281  and  _282
REMARK  120  A    between atoms: _291  and  _293
REMARK  121  A    between atoms: _293  and  _294
REMARK  122  A    between atoms: _293  and  _296
REMARK  123  A    between atoms: _296  and  _297
REMARK  124  A    between atoms: _300  and  _302
REMARK  125  A    between atoms: _302  and  _303
REMARK  126  A    between atoms: _302  and  _305
REMARK  127  A    between atoms: _305  and  _306
REMARK  128  A    between atoms: _309  and  _311
REMARK  129  A    between atoms: _311  and  _312
REMARK  130  A    between atoms: _311  and  _314
REMARK  131  A    between atoms: _314  and  _315
REMARK  132  A    between atoms: _318  and  _320
REMARK  133  A    between atoms: _320  and  _321
REMARK  134  A    between atoms: _320  and  _323
REMARK  135  A    between atoms: _323  and  _324
REMARK  136  A    between atoms: _327  and  _329
REMARK  137  A    between atoms: _329  and  _330
REMARK  138  A    between atoms: _329  and  _332
REMARK  139  A    between atoms: _332  and  _333
REMARK  140  A    between atoms: _336  and  _338
REMARK  141  A    between atoms: _338  and  _339
REMARK  142  A    between atoms: _341  and  _343
REMARK  143  A    between atoms: _343  and  _344
REMARK  144  A    between atoms: _347  and  _349
REMARK  145  A    between atoms: _349  and  _350
REMARK  146  A    between atoms: _349  and  _352
REMARK  147  A    between atoms: _352  and  _353
REMARK  148  A    between atoms: _356  and  _358
REMARK  149  A    between atoms: _358  and  _359
REMARK  150  A    between atoms: _358  and  _361
REMARK  151  A    between atoms: _361  and  _362
REMARK  152  A    between atoms: _365  and  _367
REMARK  153  A    between atoms: _367  and  _368
REMARK  154  A    between atoms: _367  and  _370
REMARK  155  A    between atoms: _370  and  _371
REMARK  156  A    between atoms: _374  and  _376
REMARK  157  A    between atoms: _376  and  _377
REMARK  158  A    between atoms: _376  and  _379
REMARK  159  A    between atoms: _379  and  _380
REMARK  160  A    between atoms: _383  and  _385
REMARK  161  A    between atoms: _385  and  _386
REMARK  162  A    between atoms: _385  and  _388
REMARK  163  A    between atoms: _388  and  _389
REMARK  164  A    between atoms: _389  and  _390
REMARK  165  A    between atoms: _390  and  _391
REMARK  166  A    between atoms: _391  and  _392
REMARK  167  A    between atoms: _396  and  _398
REMARK  168  A    between atoms: _398  and  _399
REMARK  169  A    between atoms: _398  and  _401
REMARK  170  A    between atoms: _401  and  _402
REMARK  171  A    between atoms: _402  and  _403
REMARK  172  A    between atoms: _405  and  _407
REMARK  173  A    between atoms: _407  and  _408
REMARK  174  A    between atoms: _407  and  _410
REMARK  175  A    between atoms: _413  and  _415
REMARK  176  A    between atoms: _415  and  _416
REMARK  177  A    between atoms: _418  and  _420
REMARK  178  A    between atoms: _420  and  _421
REMARK  179  A    between atoms: _423  and  _425
REMARK  180  A    between atoms: _425  and  _426
REMARK  181  A    between atoms: _425  and  _428
REMARK  182  A    between atoms: _428  and  _429
REMARK  183  A    between atoms: _432  and  _434
REMARK  184  A    between atoms: _434  and  _435
REMARK  185  A    between atoms: _437  and  _439
REMARK  186  A    between atoms: _439  and  _440
REMARK  187  A    between atoms: _442  and  _444
REMARK  188  A    between atoms: _444  and  _445
REMARK  189  A    between atoms: _444  and  _447
REMARK  190  A    between atoms: _447  and  _448
REMARK  191  A    between atoms: _454  and  _456
REMARK  192  A    between atoms: _456  and  _457
REMARK  193  A    between atoms: _456  and  _459
REMARK  194  A    between atoms: _459  and  _460
REMARK  195  A    between atoms: _463  and  _465
REMARK  196  A    between atoms: _465  and  _466
REMARK  197  A    between atoms: _465  and  _468
REMARK  198  A    between atoms: _471  and  _473
REMARK  199  A    between atoms: _473  and  _474
REMARK  200  A    between atoms: _473  and  _476
REMARK  201  A    between atoms: _476  and  _477
REMARK  202  A    between atoms: _480  and  _482
REMARK  203  A    between atoms: _482  and  _483
REMARK  204  A    between atoms: _482  and  _485
REMARK  205  A    between atoms: _485  and  _486
REMARK  206  A    between atoms: _490  and  _491
REMARK  207  A    between atoms: _496  and  _498
REMARK  208  A    between atoms: _498  and  _499
REMARK  209  A    between atoms: _498  and  _501
REMARK  210  A    between atoms: _501  and  _502
REMARK  211  A    between atoms: _505  and  _507
REMARK  212  A    between atoms: _507  and  _508
REMARK  213  A    between atoms: _507  and  _510
REMARK  214  A    between atoms: _510  and  _511
REMARK  215  A    between atoms: _516  and  _518
REMARK  216  A    between atoms: _518  and  _519
REMARK  217  A    between atoms: _518  and  _521
REMARK  218  A    between atoms: _521  and  _522
REMARK  219  A    between atoms: _525  and  _527
REMARK  220  A    between atoms: _527  and  _528
REMARK  221  A    between atoms: _527  and  _530
REMARK  222  A    between atoms: _530  and  _531
REMARK  223  A    between atoms: _534  and  _536
REMARK  224  A    between atoms: _536  and  _537
REMARK  225  A    between atoms: _539  and  _541
REMARK  226  A    between atoms: _541  and  _542
REMARK  227  A    between atoms: _541  and  _544
REMARK  228  A    between atoms: _544  and  _545
REMARK  229  A    between atoms: _545  and  _546
REMARK  230  A    between atoms: _546  and  _547
REMARK                            x       y       z     vdW  Elec       q    Type
REMARK                         _______ _______ _______ _____ _____    ______ ____
ROOT
ATOM      1  CA  VAL A   1       4.850  26.457  17.837  0.00  0.00    +0.133 C 
ENDROOT
BRANCH   1   2
ATOM      2  CB  VAL A   1       5.761  27.047  16.645  0.00  0.00    +0.023 C 
ATOM      3  CG2 VAL A   1       6.642  26.008  15.924  0.00  0.00    +0.002 C 
ATOM      4  CG1 VAL A   1       4.828  27.601  15.583  0.00  0.00    +0.002 C 
ENDBRANCH   1   2
BRANCH   1   5
ATOM      5  N   VAL A   1       3.884  25.526  17.289  0.00  0.00    -0.239 NA
ATOM      6  H   VAL A   1       3.056  25.899  16.781  0.00  0.00    +0.142 HD
ENDBRANCH   1   5
BRANCH   1   7
ATOM      7  C   VAL A   1       4.117  27.576  18.557  0.00  0.00    +0.224 C 
ATOM      8  O   VAL A   1       2.908  27.697  18.405  0.00  0.00    -0.287 OA
ENDBRANCH   1   7
TORSDOF 3
REMARK  Name = ../refined-set-2016/1tcx/1tcx_pocket.pdb
REMARK  230 active torsions:
REMARK  status: ('A' for Active; 'I' for Inactive)
REMARK    1  A    between atoms: _1  and  _3
REMARK    2  A    between atoms: _3  and  _4
REMARK    3  A    between atoms: _3  and  _6
REMARK    4  A    between atoms: _6  and  _7
REMARK    5  A    between atoms: _7  and  _8
REMARK    6  A    between atoms: _8  and  _9
REMARK    7  A    between atoms: _18  and  _20
REMARK    8  A    between atoms: _20  and  _21
REMARK    9  A    between atoms: _20  and  _23
REMARK   10  A    between atoms: _23  and  _24
REMARK   11  A    between atoms: _27  and  _29
REMARK   12  A    between atoms: _29  and  _30
REMARK   13  A    between atoms: _29  and  _32
REMARK   14  A    between atoms: _32  and  _33
REMARK   15  A    between atoms: _36  and  _38
REMARK   16  A    between atoms: _38  and  _39
REMARK   17  A    between atoms: _38  and  _41
REMARK   18  A    between atoms: _41  and  _42
REMARK   19  A    between atoms: _45  and  _47
REMARK   20  A    between atoms: _47  and  _48
REMARK   21  A    between atoms: _47  and  _50
REMARK   22  A    between atoms: _50  and  _51
REMARK   23  A    between atoms: _54  and  _56
REMARK   24  A    between atoms: _56  and  _57
REMARK   25  A    between atoms: _59  and  _61
REMARK   26  A    between atoms: _61  and  _62
REMARK   27  A    between atoms: _65  and  _67
REMARK   28  A    between atoms: _67  and  _68
REMARK   29  A    between atoms: _67  and  _70
REMARK   30  A    between atoms: _70  and  _71
REMARK   31  A    between atoms: _74  and  _76
REMARK   32  A    between atoms: _76  and  _77
REMARK   33  A    between atoms: _76  and  _79
REMARK   34  A    between atoms: _79  and  _80
REMARK   35  A    between atoms: _83  and  _85
REMARK   36  A    between atoms: _85  and  _86
REMARK   37  A    between atoms: _85  and  _88
REMARK   38  A    between atoms: _88  and  _89
REMARK   39  A    between atoms: _92  and  _94
REMARK   40  A    between atoms: _94  and  _95
REMARK   41  A    between atoms: _94  and  _97
REMARK   42  A    between atoms: _97  and  _98
REMARK   43  A    between atoms: _101  and  _103
REMARK   44  A    between atoms: _103  and  _104
REMARK   45  A    between atoms: _103  and  _106
REMARK   46  A    between atoms: _106  and  _107
REMARK   47  A    between atoms: _107  and  _108
REMARK   48  A    between atoms: _108  and  _109
REMARK   49  A    between atoms: _109  and  _110
REMARK   50  A    between atoms: _114  and  _116
REMARK   51  A    between atoms: _116  and  _117
REMARK   52  A    between atoms: _116  and  _119
REMARK   53  A    between atoms: _119  and  _120
REMARK   54  A    between atoms: _120  and  _121
REMARK   55  A    between atoms: _123  and  _125
REMARK   56  A    between atoms: _125  and  _126
REMARK   57  A    between atoms: _125  and  _128
REMARK   58  A    between atoms: _131  and  _133
REMARK   59  A    between atoms: _133  and  _134
REMARK   60  A    between atoms: _136  and  _138
REMARK   61  A    between atoms: _138  and  _139
REMARK   62  A    between atoms: _141  and  _143
REMARK   63  A    between atoms: _143  and  _144
REMARK   64  A    between atoms: _143  and  _146
REMARK   65  A    between atoms: _146  and  _147
REMARK   66  A    between atoms: _150  and  _152
REMARK   67  A    between atoms: _152  and  _153
REMARK   68  A    between atoms: _155  and  _157
REMARK   69  A    between atoms: _157  and  _158
REMARK   70  A    between atoms: _160  and  _162
REMARK   71  A    between atoms: _162  and  _163
REMARK   72  A    between atoms: _162  and  _165
REMARK   73  A    between atoms: _165  and  _166
REMARK   74  A    between atoms: _172  and  _174
REMARK   75  A    between atoms: _174  and  _175
REMARK   76  A    between atoms: _174  and  _177
REMARK   77  A    between atoms: _177  and  _178
REMARK   78  A    between atoms: _181  and  _183
REMARK   79  A    between atoms: _183  and  _184
REMARK   80  A    between atoms: _183  and  _186
REMARK   81  A    between atoms: _189  and  _191
REMARK   82  A    between atoms: _191  and  _192
REMARK   83  A    between atoms: _191  and  _194
REMARK   84  A    between atoms: _194  and  _195
REMARK   85  A    between atoms: _198  and  _200
REMARK   86  A    between atoms: _200  and  _201
REMARK   87  A    between atoms: _200  and  _203
REMARK   88  A    between atoms: _203  and  _204
REMARK   89  A    between atoms: _208  and  _209
REMARK   90  A    between atoms: _214  and  _216
REMARK   91  A    between atoms: _216  and  _217
REMARK   92  A    between atoms: _216  and  _219
REMARK   93  A    between atoms: _219  and  _220
REMARK   94  A    between atoms: _223  and  _225
REMARK   95  A    between atoms: _225  and  _226
REMARK   96  A    between atoms: _225  and  _228
REMARK   97  A    between atoms: _228  and  _229
REMARK   98  A    between atoms: _234  and  _236
REMARK   99  A    between atoms: _236  and  _237
REMARK  100  A    between atoms: _236  and  _239
REMARK  101  A    between atoms: _239  and  _240
REMARK  102  A    between atoms: _243  and  _245
REMARK  103  A    between atoms: _245  and  _246
REMARK  104  A    between atoms: _245  and  _248
REMARK  105  A    between atoms: _248  and  _249
REMARK  106  A    between atoms: _252  and  _254
REMARK  107  A    between atoms: _254  and  _255
REMARK  108  A    between atoms: _257  and  _259
REMARK  109  A    between atoms: _259  and  _260
REMARK  110  A    between atoms: _259  and  _262
REMARK  111  A    between atoms: _262  and  _263
REMARK  112  A    between atoms: _263  and  _264
REMARK  113  A    between atoms: _264  and  _265
REMARK  114  A    between atoms: _274  and  _276
REMARK  115  A    between atoms: _276  and  _277
REMARK  116  A    between atoms: _276  and  _279
REMARK  117  A    between atoms: _279  and  _280
REMARK  118  A    between atoms: _280  and  _281
REMARK  119  A    between atoms: _281  and  _282
REMARK  120  A    between atoms: _291  and  _293
REMARK  121  A    between atoms: _293  and  _294
REMARK  122  A    between atoms: _293  and  _296
REMARK  123  A    between atoms: _296  and  _297
REMARK  124  A    between atoms: _300  and  _302
REMARK  125  A    between atoms: _302  and  _303
REMARK  126  A    between atoms: _302  and  _305
REMARK  127  A    between atoms: _305  and  _306
REMARK  128  A    between atoms: _309  and  _311
REMARK  129  A    between atoms: _311  and  _312
REMARK  130  A    between atoms: _311  and  _314
REMARK  131  A    between atoms: _314  and  _315
REMARK  132  A    between atoms: _318  and  _320
REMARK  133  A    between atoms: _320  and  _321
REMARK  134  A    between atoms: _320  and  _323
REMARK  135  A    between atoms: _323  and  _324
REMARK  136  A    between atoms: _327  and  _329
REMARK  137  A    between atoms: _329  and  _330
REMARK  138  A    between atoms: _329  and  _332
REMARK  139  A    between atoms: _332  and  _333
REMARK  140  A    between atoms: _336  and  _338
REMARK  141  A    between atoms: _338  and  _339
REMARK  142  A    between atoms: _341  and  _343
REMARK  143  A    between atoms: _343  and  _344
REMARK  144  A    between atoms: _347  and  _349
REMARK  145  A    between atoms: _349  and  _350
REMARK  146  A    between atoms: _349  and  _352
REMARK  147  A    between atoms: _352  and  _353
REMARK  148  A    between atoms: _356  and  _358
REMARK  149  A    between atoms: _358  and  _359
REMARK  150  A    between atoms: _358  and  _361
REMARK  151  A    between atoms: _361  and  _362
REMARK  152  A    between atoms: _365  and  _367
REMARK  153  A    between atoms: _367  and  _368
REMARK  154  A    between atoms: _367  and  _370
REMARK  155  A    between atoms: _370  and  _371
REMARK  156  A    between atoms: _374  and  _376
REMARK  157  A    between atoms: _376  and  _377
REMARK  158  A    between atoms: _376  and  _379
REMARK  159  A    between atoms: _379  and  _380
REMARK  160  A    between atoms: _383  and  _385
REMARK  161  A    between atoms: _385  and  _386
REMARK  162  A    between atoms: _385  and  _388
REMARK  163  A    between atoms: _388  and  _389
REMARK  164  A    between atoms: _389  and  _390
REMARK  165  A    between atoms: _390  and  _391
REMARK  166  A    between atoms: _391  and  _392
REMARK  167  A    between atoms: _396  and  _398
REMARK  168  A    between atoms: _398  and  _399
REMARK  169  A    between atoms: _398  and  _401
REMARK  170  A    between atoms: _401  and  _402
REMARK  171  A    between atoms: _402  and  _403
REMARK  172  A    between atoms: _405  and  _407
REMARK  173  A    between atoms: _407  and  _408
REMARK  174  A    between atoms: _407  and  _410
REMARK  175  A    between atoms: _413  and  _415
REMARK  176  A    between atoms: _415  and  _416
REMARK  177  A    between atoms: _418  and  _420
REMARK  178  A    between atoms: _420  and  _421
REMARK  179  A    between atoms: _423  and  _425
REMARK  180  A    between atoms: _425  and  _426
REMARK  181  A    between atoms: _425  and  _428
REMARK  182  A    between atoms: _428  and  _429
REMARK  183  A    between atoms: _432  and  _434
REMARK  184  A    between atoms: _434  and  _435
REMARK  185  A    between atoms: _437  and  _439
REMARK  186  A    between atoms: _439  and  _440
REMARK  187  A    between atoms: _442  and  _444
REMARK  188  A    between atoms: _444  and  _445
REMARK  189  A    between atoms: _444  and  _447
REMARK  190  A    between atoms: _447  and  _448
REMARK  191  A    between atoms: _454  and  _456
REMARK  192  A    between atoms: _456  and  _457
REMARK  193  A    between atoms: _456  and  _459
REMARK  194  A    between atoms: _459  and  _460
REMARK  195  A    between atoms: _463  and  _465
REMARK  196  A    between atoms: _465  and  _466
REMARK  197  A    between atoms: _465  and  _468
REMARK  198  A    between atoms: _471  and  _473
REMARK  199  A    between atoms: _473  and  _474
REMARK  200  A    between atoms: _473  and  _476
REMARK  201  A    between atoms: _476  and  _477
REMARK  202  A    between atoms: _480  and  _482
REMARK  203  A    between atoms: _482  and  _483
REMARK  204  A    between atoms: _482  and  _485
REMARK  205  A    between atoms: _485  and  _486
REMARK  206  A    between atoms: _490  and  _491
REMARK  207  A    between atoms: _496  and  _498
REMARK  208  A    between atoms: _498  and  _499
REMARK  209  A    between atoms: _498  and  _501
REMARK  210  A    between atoms: _501  and  _502
REMARK  211  A    between atoms: _505  and  _507
REMARK  212  A    between atoms: _507  and  _508
REMARK  213  A    between atoms: _507  and  _510
REMARK  214  A    between atoms: _510  and  _511
REMARK  215  A    between atoms: _516  and  _518
REMARK  216  A    between atoms: _518  and  _519
REMARK  217  A    between atoms: _518  and  _521
REMARK  218  A    between atoms: _521  and  _522
REMARK  219  A    between atoms: _525  and  _527
REMARK  220  A    between atoms: _527  and  _528
REMARK  221  A    between atoms: _527  and  _530
REMARK  222  A    between atoms: _530  and  _531
REMARK  223  A    between atoms: _534  and  _536
REMARK  224  A    between atoms: _536  and  _537
REMARK  225  A    between atoms: _539  and  _541
REMARK  226  A    between atoms: _541  and  _542
REMARK  227  A    between atoms: _541  and  _544
REMARK  228  A    between atoms: _544  and  _545
REMARK  229  A    between atoms: _545  and  _546
REMARK  230  A    between atoms: _546  and  _547
REMARK                            x       y       z     vdW  Elec       q    Type
REMARK                         _______ _______ _______ _____ _____    ______ ____
ROOT
ATOM      1  CA  LEU A   1       8.354  31.111  16.506  0.00  0.00    +0.133 C 
ENDROOT
BRANCH   1   2
ATOM      2  N   LEU A   1       9.188  32.250  16.129  0.00  0.00    -0.239 NA
ATOM      3  H   LEU A   1       9.917  32.118  15.399  0.00  0.00    +0.142 HD
ENDBRANCH   1   2
BRANCH   1   4
ATOM      4  C   LEU A   1       9.285  30.280  17.349  0.00  0.00    +0.224 C 
ATOM      5  O   LEU A   1      10.485  30.158  17.068  0.00  0.00    -0.287 OA
ENDBRANCH   1   4
BRANCH   1   6
ATOM      6  CB  LEU A   1       7.926  30.224  15.335  0.00  0.00    +0.025 C 
BRANCH   6   7
ATOM      7  CG  LEU A   1       7.242  31.061  14.256  0.00  0.00    +0.002 C 
ATOM      8  CD2 LEU A   1       5.937  31.664  14.759  0.00  0.00    +0.000 C 
ATOM      9  CD1 LEU A   1       7.005  30.169  13.050  0.00  0.00    +0.000 C 
ENDBRANCH   6   7
ENDBRANCH   1   6
TORSDOF 4
REMARK  Name = ../refined-set-2016/1tcx/1tcx_pocket.pdb
REMARK  230 active torsions:
REMARK  status: ('A' for Active; 'I' for Inactive)
REMARK    1  A    between atoms: _1  and  _3
REMARK    2  A    between atoms: _3  and  _4
REMARK    3  A    between atoms: _3  and  _6
REMARK    4  A    between atoms: _6  and  _7
REMARK    5  A    between atoms: _7  and  _8
REMARK    6  A    between atoms: _8  and  _9
REMARK    7  A    between atoms: _18  and  _20
REMARK    8  A    between atoms: _20  and  _21
REMARK    9  A    between atoms: _20  and  _23
REMARK   10  A    between atoms: _23  and  _24
REMARK   11  A    between atoms: _27  and  _29
REMARK   12  A    between atoms: _29  and  _30
REMARK   13  A    between atoms: _29  and  _32
REMARK   14  A    between atoms: _32  and  _33
REMARK   15  A    between atoms: _36  and  _38
REMARK   16  A    between atoms: _38  and  _39
REMARK   17  A    between atoms: _38  and  _41
REMARK   18  A    between atoms: _41  and  _42
REMARK   19  A    between atoms: _45  and  _47
REMARK   20  A    between atoms: _47  and  _48
REMARK   21  A    between atoms: _47  and  _50
REMARK   22  A    between atoms: _50  and  _51
REMARK   23  A    between atoms: _54  and  _56
REMARK   24  A    between atoms: _56  and  _57
REMARK   25  A    between atoms: _59  and  _61
REMARK   26  A    between atoms: _61  and  _62
REMARK   27  A    between atoms: _65  and  _67
REMARK   28  A    between atoms: _67  and  _68
REMARK   29  A    between atoms: _67  and  _70
REMARK   30  A    between atoms: _70  and  _71
REMARK   31  A    between atoms: _74  and  _76
REMARK   32  A    between atoms: _76  and  _77
REMARK   33  A    between atoms: _76  and  _79
REMARK   34  A    between atoms: _79  and  _80
REMARK   35  A    between atoms: _83  and  _85
REMARK   36  A    between atoms: _85  and  _86
REMARK   37  A    between atoms: _85  and  _88
REMARK   38  A    between atoms: _88  and  _89
REMARK   39  A    between atoms: _92  and  _94
REMARK   40  A    between atoms: _94  and  _95
REMARK   41  A    between atoms: _94  and  _97
REMARK   42  A    between atoms: _97  and  _98
REMARK   43  A    between atoms: _101  and  _103
REMARK   44  A    between atoms: _103  and  _104
REMARK   45  A    between atoms: _103  and  _106
REMARK   46  A    between atoms: _106  and  _107
REMARK   47  A    between atoms: _107  and  _108
REMARK   48  A    between atoms: _108  and  _109
REMARK   49  A    between atoms: _109  and  _110
REMARK   50  A    between atoms: _114  and  _116
REMARK   51  A    between atoms: _116  and  _117
REMARK   52  A    between atoms: _116  and  _119
REMARK   53  A    between atoms: _119  and  _120
REMARK   54  A    between atoms: _120  and  _121
REMARK   55  A    between atoms: _123  and  _125
REMARK   56  A    between atoms: _125  and  _126
REMARK   57  A    between atoms: _125  and  _128
REMARK   58  A    between atoms: _131  and  _133
REMARK   59  A    between atoms: _133  and  _134
REMARK   60  A    between atoms: _136  and  _138
REMARK   61  A    between atoms: _138  and  _139
REMARK   62  A    between atoms: _141  and  _143
REMARK   63  A    between atoms: _143  and  _144
REMARK   64  A    between atoms: _143  and  _146
REMARK   65  A    between atoms: _146  and  _147
REMARK   66  A    between atoms: _150  and  _152
REMARK   67  A    between atoms: _152  and  _153
REMARK   68  A    between atoms: _155  and  _157
REMARK   69  A    between atoms: _157  and  _158
REMARK   70  A    between atoms: _160  and  _162
REMARK   71  A    between atoms: _162  and  _163
REMARK   72  A    between atoms: _162  and  _165
REMARK   73  A    between atoms: _165  and  _166
REMARK   74  A    between atoms: _172  and  _174
REMARK   75  A    between atoms: _174  and  _175
REMARK   76  A    between atoms: _174  and  _177
REMARK   77  A    between atoms: _177  and  _178
REMARK   78  A    between atoms: _181  and  _183
REMARK   79  A    between atoms: _183  and  _184
REMARK   80  A    between atoms: _183  and  _186
REMARK   81  A    between atoms: _189  and  _191
REMARK   82  A    between atoms: _191  and  _192
REMARK   83  A    between atoms: _191  and  _194
REMARK   84  A    between atoms: _194  and  _195
REMARK   85  A    between atoms: _198  and  _200
REMARK   86  A    between atoms: _200  and  _201
REMARK   87  A    between atoms: _200  and  _203
REMARK   88  A    between atoms: _203  and  _204
REMARK   89  A    between atoms: _208  and  _209
REMARK   90  A    between atoms: _214  and  _216
REMARK   91  A    between atoms: _216  and  _217
REMARK   92  A    between atoms: _216  and  _219
REMARK   93  A    between atoms: _219  and  _220
REMARK   94  A    between atoms: _223  and  _225
REMARK   95  A    between atoms: _225  and  _226
REMARK   96  A    between atoms: _225  and  _228
REMARK   97  A    between atoms: _228  and  _229
REMARK   98  A    between atoms: _234  and  _236
REMARK   99  A    between atoms: _236  and  _237
REMARK  100  A    between atoms: _236  and  _239
REMARK  101  A    between atoms: _239  and  _240
REMARK  102  A    between atoms: _243  and  _245
REMARK  103  A    between atoms: _245  and  _246
REMARK  104  A    between atoms: _245  and  _248
REMARK  105  A    between atoms: _248  and  _249
REMARK  106  A    between atoms: _252  and  _254
REMARK  107  A    between atoms: _254  and  _255
REMARK  108  A    between atoms: _257  and  _259
REMARK  109  A    between atoms: _259  and  _260
REMARK  110  A    between atoms: _259  and  _262
REMARK  111  A    between atoms: _262  and  _263
REMARK  112  A    between atoms: _263  and  _264
REMARK  113  A    between atoms: _264  and  _265
REMARK  114  A    between atoms: _274  and  _276
REMARK  115  A    between atoms: _276  and  _277
REMARK  116  A    between atoms: _276  and  _279
REMARK  117  A    between atoms: _279  and  _280
REMARK  118  A    between atoms: _280  and  _281
REMARK  119  A    between atoms: _281  and  _282
REMARK  120  A    between atoms: _291  and  _293
REMARK  121  A    between atoms: _293  and  _294
REMARK  122  A    between atoms: _293  and  _296
REMARK  123  A    between atoms: _296  and  _297
REMARK  124  A    between atoms: _300  and  _302
REMARK  125  A    between atoms: _302  and  _303
REMARK  126  A    between atoms: _302  and  _305
REMARK  127  A    between atoms: _305  and  _306
REMARK  128  A    between atoms: _309  and  _311
REMARK  129  A    between atoms: _311  and  _312
REMARK  130  A    between atoms: _311  and  _314
REMARK  131  A    between atoms: _314  and  _315
REMARK  132  A    between atoms: _318  and  _320
REMARK  133  A    between atoms: _320  and  _321
REMARK  134  A    between atoms: _320  and  _323
REMARK  135  A    between atoms: _323  and  _324
REMARK  136  A    between atoms: _327  and  _329
REMARK  137  A    between atoms: _329  and  _330
REMARK  138  A    between atoms: _329  and  _332
REMARK  139  A    between atoms: _332  and  _333
REMARK  140  A    between atoms: _336  and  _338
REMARK  141  A    between atoms: _338  and  _339
REMARK  142  A    between atoms: _341  and  _343
REMARK  143  A    between atoms: _343  and  _344
REMARK  144  A    between atoms: _347  and  _349
REMARK  145  A    between atoms: _349  and  _350
REMARK  146  A    between atoms: _349  and  _352
REMARK  147  A    between atoms: _352  and  _353
REMARK  148  A    between atoms: _356  and  _358
REMARK  149  A    between atoms: _358  and  _359
REMARK  150  A    between atoms: _358  and  _361
REMARK  151  A    between atoms: _361  and  _362
REMARK  152  A    between atoms: _365  and  _367
REMARK  153  A    between atoms: _367  and  _368
REMARK  154  A    between atoms: _367  and  _370
REMARK  155  A    between atoms: _370  and  _371
REMARK  156  A    between atoms: _374  and  _376
REMARK  157  A    between atoms: _376  and  _377
REMARK  158  A    between atoms: _376  and  _379
REMARK  159  A    between atoms: _379  and  _380
REMARK  160  A    between atoms: _383  and  _385
REMARK  161  A    between atoms: _385  and  _386
REMARK  162  A    between atoms: _385  and  _388
REMARK  163  A    between atoms: _388  and  _389
REMARK  164  A    between atoms: _389  and  _390
REMARK  165  A    between atoms: _390  and  _391
REMARK  166  A    between atoms: _391  and  _392
REMARK  167  A    between atoms: _396  and  _398
REMARK  168  A    between atoms: _398  and  _399
REMARK  169  A    between atoms: _398  and  _401
REMARK  170  A    between atoms: _401  and  _402
REMARK  171  A    between atoms: _402  and  _403
REMARK  172  A    between atoms: _405  and  _407
REMARK  173  A    between atoms: _407  and  _408
REMARK  174  A    between atoms: _407  and  _410
REMARK  175  A    between atoms: _413  and  _415
REMARK  176  A    between atoms: _415  and  _416
REMARK  177  A    between atoms: _418  and  _420
REMARK  178  A    between atoms: _420  and  _421
REMARK  179  A    between atoms: _423  and  _425
REMARK  180  A    between atoms: _425  and  _426
REMARK  181  A    between atoms: _425  and  _428
REMARK  182  A    between atoms: _428  and  _429
REMARK  183  A    between atoms: _432  and  _434
REMARK  184  A    between atoms: _434  and  _435
REMARK  185  A    between atoms: _437  and  _439
REMARK  186  A    between atoms: _439  and  _440
REMARK  187  A    between atoms: _442  and  _444
REMARK  188  A    between atoms: _444  and  _445
REMARK  189  A    between atoms: _444  and  _447
REMARK  190  A    between atoms: _447  and  _448
REMARK  191  A    between atoms: _454  and  _456
REMARK  192  A    between atoms: _456  and  _457
REMARK  193  A    between atoms: _456  and  _459
REMARK  194  A    between atoms: _459  and  _460
REMARK  195  A    between atoms: _463  and  _465
REMARK  196  A    between atoms: _465  and  _466
REMARK  197  A    between atoms: _465  and  _468
REMARK  198  A    between atoms: _471  and  _473
REMARK  199  A    between atoms: _473  and  _474
REMARK  200  A    between atoms: _473  and  _476
REMARK  201  A    between atoms: _476  and  _477
REMARK  202  A    between atoms: _480  and  _482
REMARK  203  A    between atoms: _482  and  _483
REMARK  204  A    between atoms: _482  and  _485
REMARK  205  A    between atoms: _485  and  _486
REMARK  206  A    between atoms: _490  and  _491
REMARK  207  A    between atoms: _496  and  _498
REMARK  208  A    between atoms: _498  and  _499
REMARK  209  A    between atoms: _498  and  _501
REMARK  210  A    between atoms: _501  and  _502
REMARK  211  A    between atoms: _505  and  _507
REMARK  212  A    between atoms: _507  and  _508
REMARK  213  A    between atoms: _507  and  _510
REMARK  214  A    between atoms: _510  and  _511
REMARK  215  A    between atoms: _516  and  _518
REMARK  216  A    between atoms: _518  and  _519
REMARK  217  A    between atoms: _518  and  _521
REMARK  218  A    between atoms: _521  and  _522
REMARK  219  A    between atoms: _525  and  _527
REMARK  220  A    between atoms: _527  and  _528
REMARK  221  A    between atoms: _527  and  _530
REMARK  222  A    between atoms: _530  and  _531
REMARK  223  A    between atoms: _534  and  _536
REMARK  224  A    between atoms: _536  and  _537
REMARK  225  A    between atoms: _539  and  _541
REMARK  226  A    between atoms: _541  and  _542
REMARK  227  A    between atoms: _541  and  _544
REMARK  228  A    between atoms: _544  and  _545
REMARK  229  A    between atoms: _545  and  _546
REMARK  230  A    between atoms: _546  and  _547
REMARK                            x       y       z     vdW  Elec       q    Type
REMARK                         _______ _______ _______ _____ _____    ______ ____
ROOT
ATOM      1  C   ASN A   4      17.624  27.777  13.806  0.00  0.00    +0.241 C 
ATOM      2  N   ILE A   5      16.605  28.370  13.220  0.00  0.00    -0.297 N 
ATOM      3  H   ILE A   5      15.751  28.533  13.791  0.00  0.00    +0.150 HD
ATOM      4  O   ASN A   4      18.688  27.636  13.187  0.00  0.00    -0.273 OA
ENDROOT
BRANCH   2   5
ATOM      5  CA  ILE A   5      16.581  28.817  11.830  0.00  0.00    +0.149 C 
BRANCH   5   6
ATOM      6  C   ILE A   5      16.217  30.283  11.755  0.00  0.00    +0.241 C 
ATOM      7  O   ILE A   5      15.168  30.624  12.317  0.00  0.00    -0.273 OA
ATOM      8  N   ILE A   6      16.991  31.102  11.053  0.00  0.00    -0.297 N 
ATOM      9  H   ILE A   6      17.834  30.704  10.591  0.00  0.00    +0.150 HD
BRANCH   8  10
ATOM     10  CA  ILE A   6      16.727  32.534  10.891  0.00  0.00    +0.149 C 
BRANCH  10  11
ATOM     11  C   ILE A   6      16.119  32.541   9.488  0.00  0.00    +0.241 C 
ATOM     12  N   GLY A   7      14.871  32.907   9.384  0.00  0.00    -0.295 N 
ATOM     13  H   GLY A   7      14.362  33.202  10.242  0.00  0.00    +0.150 HD
ATOM     14  O   ILE A   6      16.769  32.173   8.522  0.00  0.00    -0.273 OA
BRANCH  12  15
ATOM     15  CA  GLY A   7      14.167  32.918   8.115  0.00  0.00    +0.176 C 
BRANCH  15  16
ATOM     16  C   GLY A   7      14.170  34.286   7.484  0.00  0.00    +0.243 C 
ATOM     17  O   GLY A   7      14.788  35.245   8.006  0.00  0.00    -0.273 OA
ATOM     18  N   ARG A   8      13.456  34.330   6.367  0.00  0.00    -0.298 N 
ATOM     19  H   ARG A   8      12.889  33.499   6.104  0.00  0.00    +0.150 HD
BRANCH  18  20
ATOM     20  CA  ARG A   8      13.434  35.500   5.491  0.00  0.00    +0.137 C 
BRANCH  20  21
ATOM     21  C   ARG A   8      12.949  36.797   6.150  0.00  0.00    +0.227 C 
ATOM     22  O   ARG A   8      13.491  37.887   5.861  0.00  0.00    -0.286 OA
ENDBRANCH  20  21
BRANCH  20  23
ATOM     23  CB  ARG A   8      12.579  35.216   4.261  0.00  0.00    +0.031 C 
BRANCH  23  24
ATOM     24  CG  ARG A   8      13.221  34.353   3.186  0.00  0.00    +0.045 C 
BRANCH  24  25
ATOM     25  CD  ARG A   8      12.385  34.417   1.912  0.00  0.00    +0.174 C 
BRANCH  25  26
ATOM     26  NE  ARG A   8      10.986  33.977   2.108  0.00  0.00    -0.265 N 
ATOM     27  HE  ARG A   8      10.828  32.966   2.294  0.00  0.00    +0.259 HD
ATOM     28  CZ  ARG A   8       9.905  34.769   2.066  0.00  0.00    +0.342 C 
ATOM     29  NH2 ARG A   8       8.686  34.299   2.322  0.00  0.00    -0.292 N 
ATOM     30 HH21 ARG A   8       8.555  33.295   2.562  0.00  0.00    +0.255 HD
ATOM     31 HH22 ARG A   8       7.864  34.935   2.282  0.00  0.00    +0.255 HD
ATOM     32  NH1 ARG A   8      10.023  36.060   1.837  0.00  0.00    -0.292 N 
ATOM     33 HH11 ARG A   8       9.176  36.662   1.807  0.00  0.00    +0.255 HD
ATOM     34 HH12 ARG A   8      10.963  36.477   1.686  0.00  0.00    +0.255 HD
ENDBRANCH  25  26
ENDBRANCH  24  25
ENDBRANCH  23  24
ENDBRANCH  20  23
ENDBRANCH  18  20
ENDBRANCH  15  16
ENDBRANCH  12  15
ENDBRANCH  10  11
BRANCH  10  35
ATOM     35  CB  ILE A   6      18.008  33.416  10.880  0.00  0.00    +0.027 C 
ATOM     36  CG2 ILE A   6      17.643  34.890  10.654  0.00  0.00    +0.002 C 
BRANCH  35  37
ATOM     37  CG1 ILE A   6      18.766  33.264  12.231  0.00  0.00    +0.002 C 
ATOM     38  CD1 ILE A   6      17.973  33.557  13.508  0.00  0.00    +0.000 C 
ENDBRANCH  35  37
ENDBRANCH  10  35
ENDBRANCH   8  10
ENDBRANCH   5   6
BRANCH   5  39
ATOM     39  CB  ILE A   5      15.513  27.909  11.128  0.00  0.00    +0.027 C 
ATOM     40  CG2 ILE A   5      14.973  28.558   9.871  0.00  0.00    +0.002 C 
BRANCH  39  41
ATOM     41  CG1 ILE A   5      16.126  26.531  10.886  0.00  0.00    +0.002 C 
ATOM     42  CD1 ILE A   5      14.975  25.602  10.702  0.00  0.00    +0.000 C 
ENDBRANCH  39  41
ENDBRANCH   5  39
ENDBRANCH   2   5
BRANCH   1  43
ATOM     43  CA  ASN A   4      17.536  27.305  15.270  0.00  0.00    +0.158 C 
BRANCH  43  45
ATOM     44  C   ILE A   3      17.335  24.944  14.766  0.00  0.00    +0.241 C 
ATOM     45  N   ASN A   4      18.055  25.931  15.262  0.00  0.00    -0.297 N 
ATOM     46  H   ASN A   4      18.999  25.735  15.651  0.00  0.00    +0.150 HD
ATOM     47  O   ILE A   3      16.169  25.112  14.400  0.00  0.00    -0.273 OA
BRANCH  44  48
ATOM     48  CA  ILE A   3      17.937  23.548  14.778  0.00  0.00    +0.149 C 
BRANCH  48  51
ATOM     49  C   PRO A   2      16.953  21.398  15.447  0.00  0.00    +0.241 C 
ATOM     50  O   PRO A   2      18.022  21.065  15.966  0.00  0.00    -0.273 OA
ATOM     51  N   ILE A   3      16.821  22.594  14.852  0.00  0.00    -0.297 N 
ATOM     52  H   ILE A   3      15.905  22.852  14.432  0.00  0.00    +0.150 HD
BRANCH  49  56
ATOM     53  C   THR A   1      13.951  21.823  16.294  0.00  0.00    +0.244 C 
ATOM     54  O   THR A   1      14.441  21.946  17.434  0.00  0.00    -0.273 OA
ATOM     55  N   PRO A   2      14.493  21.025  15.351  0.00  0.00    -0.272 N 
ATOM     56  CA  PRO A   2      15.793  20.398  15.493  0.00  0.00    +0.152 C 
ATOM     57  CB  PRO A   2      15.803  19.362  14.344  0.00  0.00    +0.031 C 
ATOM     58  CG  PRO A   2      15.080  20.090  13.284  0.00  0.00    +0.024 C 
ATOM     59  CD  PRO A   2      13.904  20.597  14.045  0.00  0.00    +0.094 C 
BRANCH  53  60
ATOM     60  CA  THR A   1      12.647  22.510  15.893  0.00  0.00    +0.172 C 
BRANCH  60  61
ATOM     61  CB  THR A   1      12.904  23.978  15.404  0.00  0.00    +0.135 C 
ATOM     62  CG2 THR A   1      13.585  24.854  16.417  0.00  0.00    +0.034 C 
BRANCH  61  63
ATOM     63  OG1 THR A   1      13.756  23.890  14.271  0.00  0.00    -0.383 OA
ATOM     64  HG1 THR A   1      14.605  23.452  14.531  0.00  0.00    +0.210 HD
ENDBRANCH  61  63
ENDBRANCH  60  61
BRANCH  60  65
ATOM     65  N   THR A   1      11.871  22.477  17.111  0.00  0.00    -0.236 NA
ATOM     66  H   THR A   1      11.965  23.264  17.785  0.00  0.00    +0.142 HD
ENDBRANCH  60  65
ENDBRANCH  53  60
ENDBRANCH  49  56
ENDBRANCH  48  51
BRANCH  48  67
ATOM     67  CB  ILE A   3      18.724  23.108  13.475  0.00  0.00    +0.027 C 
ATOM     68  CG2 ILE A   3      17.785  23.152  12.289  0.00  0.00    +0.002 C 
BRANCH  67  69
ATOM     69  CG1 ILE A   3      19.894  23.993  13.172  0.00  0.00    +0.002 C 
ATOM     70  CD1 ILE A   3      20.665  23.462  11.967  0.00  0.00    +0.000 C 
ENDBRANCH  67  69
ENDBRANCH  48  67
ENDBRANCH  44  48
ENDBRANCH  43  45
BRANCH  43  71
ATOM     71  CB  ASN A   4      18.382  28.205  16.171  0.00  0.00    +0.114 C 
BRANCH  71  72
ATOM     72  CG  ASN A   4      18.236  27.893  17.632  0.00  0.00    +0.222 C 
ATOM     73  ND2 ASN A   4      19.350  27.781  18.335  0.00  0.00    -0.329 N 
ATOM     74 HD21 ASN A   4      19.305  27.539  19.345  0.00  0.00    +0.145 HD
ATOM     75 HD22 ASN A   4      20.271  27.935  17.878  0.00  0.00    +0.145 HD
ATOM     76  OD1 ASN A   4      17.131  27.718  18.139  0.00  0.00    -0.275 OA
ENDBRANCH  71  72
ENDBRANCH  43  71
ENDBRANCH   1  43
TORSDOF 29
REMARK  Name = ../refined-set-2016/1tcx/1tcx_pocket.pdb
REMARK  230 active torsions:
REMARK  status: ('A' for Active; 'I' for Inactive)
REMARK    1  A    between atoms: _1  and  _3
REMARK    2  A    between atoms: _3  and  _4
REMARK    3  A    between atoms: _3  and  _6
REMARK    4  A    between atoms: _6  and  _7
REMARK    5  A    between atoms: _7  and  _8
REMARK    6  A    between atoms: _8  and  _9
REMARK    7  A    between atoms: _18  and  _20
REMARK    8  A    between atoms: _20  and  _21
REMARK    9  A    between atoms: _20  and  _23
REMARK   10  A    between atoms: _23  and  _24
REMARK   11  A    between atoms: _27  and  _29
REMARK   12  A    between atoms: _29  and  _30
REMARK   13  A    between atoms: _29  and  _32
REMARK   14  A    between atoms: _32  and  _33
REMARK   15  A    between atoms: _36  and  _38
REMARK   16  A    between atoms: _38  and  _39
REMARK   17  A    between atoms: _38  and  _41
REMARK   18  A    between atoms: _41  and  _42
REMARK   19  A    between atoms: _45  and  _47
REMARK   20  A    between atoms: _47  and  _48
REMARK   21  A    between atoms: _47  and  _50
REMARK   22  A    between atoms: _50  and  _51
REMARK   23  A    between atoms: _54  and  _56
REMARK   24  A    between atoms: _56  and  _57
REMARK   25  A    between atoms: _59  and  _61
REMARK   26  A    between atoms: _61  and  _62
REMARK   27  A    between atoms: _65  and  _67
REMARK   28  A    between atoms: _67  and  _68
REMARK   29  A    between atoms: _67  and  _70
REMARK   30  A    between atoms: _70  and  _71
REMARK   31  A    between atoms: _74  and  _76
REMARK   32  A    between atoms: _76  and  _77
REMARK   33  A    between atoms: _76  and  _79
REMARK   34  A    between atoms: _79  and  _80
REMARK   35  A    between atoms: _83  and  _85
REMARK   36  A    between atoms: _85  and  _86
REMARK   37  A    between atoms: _85  and  _88
REMARK   38  A    between atoms: _88  and  _89
REMARK   39  A    between atoms: _92  and  _94
REMARK   40  A    between atoms: _94  and  _95
REMARK   41  A    between atoms: _94  and  _97
REMARK   42  A    between atoms: _97  and  _98
REMARK   43  A    between atoms: _101  and  _103
REMARK   44  A    between atoms: _103  and  _104
REMARK   45  A    between atoms: _103  and  _106
REMARK   46  A    between atoms: _106  and  _107
REMARK   47  A    between atoms: _107  and  _108
REMARK   48  A    between atoms: _108  and  _109
REMARK   49  A    between atoms: _109  and  _110
REMARK   50  A    between atoms: _114  and  _116
REMARK   51  A    between atoms: _116  and  _117
REMARK   52  A    between atoms: _116  and  _119
REMARK   53  A    between atoms: _119  and  _120
REMARK   54  A    between atoms: _120  and  _121
REMARK   55  A    between atoms: _123  and  _125
REMARK   56  A    between atoms: _125  and  _126
REMARK   57  A    between atoms: _125  and  _128
REMARK   58  A    between atoms: _131  and  _133
REMARK   59  A    between atoms: _133  and  _134
REMARK   60  A    between atoms: _136  and  _138
REMARK   61  A    between atoms: _138  and  _139
REMARK   62  A    between atoms: _141  and  _143
REMARK   63  A    between atoms: _143  and  _144
REMARK   64  A    between atoms: _143  and  _146
REMARK   65  A    between atoms: _146  and  _147
REMARK   66  A    between atoms: _150  and  _152
REMARK   67  A    between atoms: _152  and  _153
REMARK   68  A    between atoms: _155  and  _157
REMARK   69  A    between atoms: _157  and  _158
REMARK   70  A    between atoms: _160  and  _162
REMARK   71  A    between atoms: _162  and  _163
REMARK   72  A    between atoms: _162  and  _165
REMARK   73  A    between atoms: _165  and  _166
REMARK   74  A    between atoms: _172  and  _174
REMARK   75  A    between atoms: _174  and  _175
REMARK   76  A    between atoms: _174  and  _177
REMARK   77  A    between atoms: _177  and  _178
REMARK   78  A    between atoms: _181  and  _183
REMARK   79  A    between atoms: _183  and  _184
REMARK   80  A    between atoms: _183  and  _186
REMARK   81  A    between atoms: _189  and  _191
REMARK   82  A    between atoms: _191  and  _192
REMARK   83  A    between atoms: _191  and  _194
REMARK   84  A    between atoms: _194  and  _195
REMARK   85  A    between atoms: _198  and  _200
REMARK   86  A    between atoms: _200  and  _201
REMARK   87  A    between atoms: _200  and  _203
REMARK   88  A    between atoms: _203  and  _204
REMARK   89  A    between atoms: _208  and  _209
REMARK   90  A    between atoms: _214  and  _216
REMARK   91  A    between atoms: _216  and  _217
REMARK   92  A    between atoms: _216  and  _219
REMARK   93  A    between atoms: _219  and  _220
REMARK   94  A    between atoms: _223  and  _225
REMARK   95  A    between atoms: _225  and  _226
REMARK   96  A    between atoms: _225  and  _228
REMARK   97  A    between atoms: _228  and  _229
REMARK   98  A    between atoms: _234  and  _236
REMARK   99  A    between atoms: _236  and  _237
REMARK  100  A    between atoms: _236  and  _239
REMARK  101  A    between atoms: _239  and  _240
REMARK  102  A    between atoms: _243  and  _245
REMARK  103  A    between atoms: _245  and  _246
REMARK  104  A    between atoms: _245  and  _248
REMARK  105  A    between atoms: _248  and  _249
REMARK  106  A    between atoms: _252  and  _254
REMARK  107  A    between atoms: _254  and  _255
REMARK  108  A    between atoms: _257  and  _259
REMARK  109  A    between atoms: _259  and  _260
REMARK  110  A    between atoms: _259  and  _262
REMARK  111  A    between atoms: _262  and  _263
REMARK  112  A    between atoms: _263  and  _264
REMARK  113  A    between atoms: _264  and  _265
REMARK  114  A    between atoms: _274  and  _276
REMARK  115  A    between atoms: _276  and  _277
REMARK  116  A    between atoms: _276  and  _279
REMARK  117  A    between atoms: _279  and  _280
REMARK  118  A    between atoms: _280  and  _281
REMARK  119  A    between atoms: _281  and  _282
REMARK  120  A    between atoms: _291  and  _293
REMARK  121  A    between atoms: _293  and  _294
REMARK  122  A    between atoms: _293  and  _296
REMARK  123  A    between atoms: _296  and  _297
REMARK  124  A    between atoms: _300  and  _302
REMARK  125  A    between atoms: _302  and  _303
REMARK  126  A    between atoms: _302  and  _305
REMARK  127  A    between atoms: _305  and  _306
REMARK  128  A    between atoms: _309  and  _311
REMARK  129  A    between atoms: _311  and  _312
REMARK  130  A    between atoms: _311  and  _314
REMARK  131  A    between atoms: _314  and  _315
REMARK  132  A    between atoms: _318  and  _320
REMARK  133  A    between atoms: _320  and  _321
REMARK  134  A    between atoms: _320  and  _323
REMARK  135  A    between atoms: _323  and  _324
REMARK  136  A    between atoms: _327  and  _329
REMARK  137  A    between atoms: _329  and  _330
REMARK  138  A    between atoms: _329  and  _332
REMARK  139  A    between atoms: _332  and  _333
REMARK  140  A    between atoms: _336  and  _338
REMARK  141  A    between atoms: _338  and  _339
REMARK  142  A    between atoms: _341  and  _343
REMARK  143  A    between atoms: _343  and  _344
REMARK  144  A    between atoms: _347  and  _349
REMARK  145  A    between atoms: _349  and  _350
REMARK  146  A    between atoms: _349  and  _352
REMARK  147  A    between atoms: _352  and  _353
REMARK  148  A    between atoms: _356  and  _358
REMARK  149  A    between atoms: _358  and  _359
REMARK  150  A    between atoms: _358  and  _361
REMARK  151  A    between atoms: _361  and  _362
REMARK  152  A    between atoms: _365  and  _367
REMARK  153  A    between atoms: _367  and  _368
REMARK  154  A    between atoms: _367  and  _370
REMARK  155  A    between atoms: _370  and  _371
REMARK  156  A    between atoms: _374  and  _376
REMARK  157  A    between atoms: _376  and  _377
REMARK  158  A    between atoms: _376  and  _379
REMARK  159  A    between atoms: _379  and  _380
REMARK  160  A    between atoms: _383  and  _385
REMARK  161  A    between atoms: _385  and  _386
REMARK  162  A    between atoms: _385  and  _388
REMARK  163  A    between atoms: _388  and  _389
REMARK  164  A    between atoms: _389  and  _390
REMARK  165  A    between atoms: _390  and  _391
REMARK  166  A    between atoms: _391  and  _392
REMARK  167  A    between atoms: _396  and  _398
REMARK  168  A    between atoms: _398  and  _399
REMARK  169  A    between atoms: _398  and  _401
REMARK  170  A    between atoms: _401  and  _402
REMARK  171  A    between atoms: _402  and  _403
REMARK  172  A    between atoms: _405  and  _407
REMARK  173  A    between atoms: _407  and  _408
REMARK  174  A    between atoms: _407  and  _410
REMARK  175  A    between atoms: _413  and  _415
REMARK  176  A    between atoms: _415  and  _416
REMARK  177  A    between atoms: _418  and  _420
REMARK  178  A    between atoms: _420  and  _421
REMARK  179  A    between atoms: _423  and  _425
REMARK  180  A    between atoms: _425  and  _426
REMARK  181  A    between atoms: _425  and  _428
REMARK  182  A    between atoms: _428  and  _429
REMARK  183  A    between atoms: _432  and  _434
REMARK  184  A    between atoms: _434  and  _435
REMARK  185  A    between atoms: _437  and  _439
REMARK  186  A    between atoms: _439  and  _440
REMARK  187  A    between atoms: _442  and  _444
REMARK  188  A    between atoms: _444  and  _445
REMARK  189  A    between atoms: _444  and  _447
REMARK  190  A    between atoms: _447  and  _448
REMARK  191  A    between atoms: _454  and  _456
REMARK  192  A    between atoms: _456  and  _457
REMARK  193  A    between atoms: _456  and  _459
REMARK  194  A    between atoms: _459  and  _460
REMARK  195  A    between atoms: _463  and  _465
REMARK  196  A    between atoms: _465  and  _466
REMARK  197  A    between atoms: _465  and  _468
REMARK  198  A    between atoms: _471  and  _473
REMARK  199  A    between atoms: _473  and  _474
REMARK  200  A    between atoms: _473  and  _476
REMARK  201  A    between atoms: _476  and  _477
REMARK  202  A    between atoms: _480  and  _482
REMARK  203  A    between atoms: _482  and  _483
REMARK  204  A    between atoms: _482  and  _485
REMARK  205  A    between atoms: _485  and  _486
REMARK  206  A    between atoms: _490  and  _491
REMARK  207  A    between atoms: _496  and  _498
REMARK  208  A    between atoms: _498  and  _499
REMARK  209  A    between atoms: _498  and  _501
REMARK  210  A    between atoms: _501  and  _502
REMARK  211  A    between atoms: _505  and  _507
REMARK  212  A    between atoms: _507  and  _508
REMARK  213  A    between atoms: _507  and  _510
REMARK  214  A    between atoms: _510  and  _511
REMARK  215  A    between atoms: _516  and  _518
REMARK  216  A    between atoms: _518  and  _519
REMARK  217  A    between atoms: _518  and  _521
REMARK  218  A    between atoms: _521  and  _522
REMARK  219  A    between atoms: _525  and  _527
REMARK  220  A    between atoms: _527  and  _528
REMARK  221  A    between atoms: _527  and  _530
REMARK  222  A    between atoms: _530  and  _531
REMARK  223  A    between atoms: _534  and  _536
REMARK  224  A    between atoms: _536  and  _537
REMARK  225  A    between atoms: _539  and  _541
REMARK  226  A    between atoms: _541  and  _542
REMARK  227  A    between atoms: _541  and  _544
REMARK  228  A    between atoms: _544  and  _545
REMARK  229  A    between atoms: _545  and  _546
REMARK  230  A    between atoms: _546  and  _547
REMARK                            x       y       z     vdW  Elec       q    Type
REMARK                         _______ _______ _______ _____ _____    ______ ____
ROOT
ATOM      1  NE  ARG A   1       7.397  30.337   0.447  0.00  0.00    -0.265 N 
ATOM      2  HE  ARG A   1       7.761  30.799   1.305  0.00  0.00    +0.259 HD
ATOM      3  CZ  ARG A   1       6.447  29.426   0.595  0.00  0.00    +0.342 C 
ATOM      4  NH2 ARG A   1       6.024  29.136   1.800  0.00  0.00    -0.292 N 
ATOM      5 HH21 ARG A   1       6.433  29.619   2.625  0.00  0.00    +0.255 HD
ATOM      6 HH22 ARG A   1       5.279  28.423   1.932  0.00  0.00    +0.255 HD
ATOM      7  NH1 ARG A   1       5.929  28.791  -0.434  0.00  0.00    -0.292 N 
ATOM      8 HH11 ARG A   1       5.184  28.081  -0.285  0.00  0.00    +0.255 HD
ATOM      9 HH12 ARG A   1       6.264  28.999  -1.396  0.00  0.00    +0.255 HD
ENDROOT
BRANCH   1  10
ATOM     10  CD  ARG A   1       7.967  30.737  -0.828  0.00  0.00    +0.174 C 
BRANCH  10  11
ATOM     11  CG  ARG A   1       8.733  31.969  -0.564  0.00  0.00    +0.045 C 
BRANCH  11  12
ATOM     12  CB  ARG A   1       9.352  32.393  -1.828  0.00  0.00    +0.029 C 
BRANCH  12  13
ATOM     13  CA  ARG A   1      10.331  33.514  -1.657  0.00  0.00    +0.133 C 
BRANCH  13  14
ATOM     14  N   ARG A   1       9.675  34.819  -1.684  0.00  0.00    -0.239 NA
ATOM     15  H   ARG A   1       8.662  34.883  -1.913  0.00  0.00    +0.142 HD
ENDBRANCH  13  14
BRANCH  13  16
ATOM     16  C   ARG A   1      11.244  33.489  -2.868  0.00  0.00    +0.224 C 
ATOM     17  O   ARG A   1      10.743  33.831  -3.954  0.00  0.00    -0.287 OA
ENDBRANCH  13  16
ENDBRANCH  12  13
ENDBRANCH  11  12
ENDBRANCH  10  11
ENDBRANCH   1  10
TORSDOF 6
REMARK  Name = ../refined-set-2016/1tcx/1tcx_pocket.pdb
REMARK  230 active torsions:
REMARK  status: ('A' for Active; 'I' for Inactive)
REMARK    1  A    between atoms: _1  and  _3
REMARK    2  A    between atoms: _3  and  _4
REMARK    3  A    between atoms: _3  and  _6
REMARK    4  A    between atoms: _6  and  _7
REMARK    5  A    between atoms: _7  and  _8
REMARK    6  A    between atoms: _8  and  _9
REMARK    7  A    between atoms: _18  and  _20
REMARK    8  A    between atoms: _20  and  _21
REMARK    9  A    between atoms: _20  and  _23
REMARK   10  A    between atoms: _23  and  _24
REMARK   11  A    between atoms: _27  and  _29
REMARK   12  A    between atoms: _29  and  _30
REMARK   13  A    between atoms: _29  and  _32
REMARK   14  A    between atoms: _32  and  _33
REMARK   15  A    between atoms: _36  and  _38
REMARK   16  A    between atoms: _38  and  _39
REMARK   17  A    between atoms: _38  and  _41
REMARK   18  A    between atoms: _41  and  _42
REMARK   19  A    between atoms: _45  and  _47
REMARK   20  A    between atoms: _47  and  _48
REMARK   21  A    between atoms: _47  and  _50
REMARK   22  A    between atoms: _50  and  _51
REMARK   23  A    between atoms: _54  and  _56
REMARK   24  A    between atoms: _56  and  _57
REMARK   25  A    between atoms: _59  and  _61
REMARK   26  A    between atoms: _61  and  _62
REMARK   27  A    between atoms: _65  and  _67
REMARK   28  A    between atoms: _67  and  _68
REMARK   29  A    between atoms: _67  and  _70
REMARK   30  A    between atoms: _70  and  _71
REMARK   31  A    between atoms: _74  and  _76
REMARK   32  A    between atoms: _76  and  _77
REMARK   33  A    between atoms: _76  and  _79
REMARK   34  A    between atoms: _79  and  _80
REMARK   35  A    between atoms: _83  and  _85
REMARK   36  A    between atoms: _85  and  _86
REMARK   37  A    between atoms: _85  and  _88
REMARK   38  A    between atoms: _88  and  _89
REMARK   39  A    between atoms: _92  and  _94
REMARK   40  A    between atoms: _94  and  _95
REMARK   41  A    between atoms: _94  and  _97
REMARK   42  A    between atoms: _97  and  _98
REMARK   43  A    between atoms: _101  and  _103
REMARK   44  A    between atoms: _103  and  _104
REMARK   45  A    between atoms: _103  and  _106
REMARK   46  A    between atoms: _106  and  _107
REMARK   47  A    between atoms: _107  and  _108
REMARK   48  A    between atoms: _108  and  _109
REMARK   49  A    between atoms: _109  and  _110
REMARK   50  A    between atoms: _114  and  _116
REMARK   51  A    between atoms: _116  and  _117
REMARK   52  A    between atoms: _116  and  _119
REMARK   53  A    between atoms: _119  and  _120
REMARK   54  A    between atoms: _120  and  _121
REMARK   55  A    between atoms: _123  and  _125
REMARK   56  A    between atoms: _125  and  _126
REMARK   57  A    between atoms: _125  and  _128
REMARK   58  A    between atoms: _131  and  _133
REMARK   59  A    between atoms: _133  and  _134
REMARK   60  A    between atoms: _136  and  _138
REMARK   61  A    between atoms: _138  and  _139
REMARK   62  A    between atoms: _141  and  _143
REMARK   63  A    between atoms: _143  and  _144
REMARK   64  A    between atoms: _143  and  _146
REMARK   65  A    between atoms: _146  and  _147
REMARK   66  A    between atoms: _150  and  _152
REMARK   67  A    between atoms: _152  and  _153
REMARK   68  A    between atoms: _155  and  _157
REMARK   69  A    between atoms: _157  and  _158
REMARK   70  A    between atoms: _160  and  _162
REMARK   71  A    between atoms: _162  and  _163
REMARK   72  A    between atoms: _162  and  _165
REMARK   73  A    between atoms: _165  and  _166
REMARK   74  A    between atoms: _172  and  _174
REMARK   75  A    between atoms: _174  and  _175
REMARK   76  A    between atoms: _174  and  _177
REMARK   77  A    between atoms: _177  and  _178
REMARK   78  A    between atoms: _181  and  _183
REMARK   79  A    between atoms: _183  and  _184
REMARK   80  A    between atoms: _183  and  _186
REMARK   81  A    between atoms: _189  and  _191
REMARK   82  A    between atoms: _191  and  _192
REMARK   83  A    between atoms: _191  and  _194
REMARK   84  A    between atoms: _194  and  _195
REMARK   85  A    between atoms: _198  and  _200
REMARK   86  A    between atoms: _200  and  _201
REMARK   87  A    between atoms: _200  and  _203
REMARK   88  A    between atoms: _203  and  _204
REMARK   89  A    between atoms: _208  and  _209
REMARK   90  A    between atoms: _214  and  _216
REMARK   91  A    between atoms: _216  and  _217
REMARK   92  A    between atoms: _216  and  _219
REMARK   93  A    between atoms: _219  and  _220
REMARK   94  A    between atoms: _223  and  _225
REMARK   95  A    between atoms: _225  and  _226
REMARK   96  A    between atoms: _225  and  _228
REMARK   97  A    between atoms: _228  and  _229
REMARK   98  A    between atoms: _234  and  _236
REMARK   99  A    between atoms: _236  and  _237
REMARK  100  A    between atoms: _236  and  _239
REMARK  101  A    between atoms: _239  and  _240
REMARK  102  A    between atoms: _243  and  _245
REMARK  103  A    between atoms: _245  and  _246
REMARK  104  A    between atoms: _245  and  _248
REMARK  105  A    between atoms: _248  and  _249
REMARK  106  A    between atoms: _252  and  _254
REMARK  107  A    between atoms: _254  and  _255
REMARK  108  A    between atoms: _257  and  _259
REMARK  109  A    between atoms: _259  and  _260
REMARK  110  A    between atoms: _259  and  _262
REMARK  111  A    between atoms: _262  and  _263
REMARK  112  A    between atoms: _263  and  _264
REMARK  113  A    between atoms: _264  and  _265
REMARK  114  A    between atoms: _274  and  _276
REMARK  115  A    between atoms: _276  and  _277
REMARK  116  A    between atoms: _276  and  _279
REMARK  117  A    between atoms: _279  and  _280
REMARK  118  A    between atoms: _280  and  _281
REMARK  119  A    between atoms: _281  and  _282
REMARK  120  A    between atoms: _291  and  _293
REMARK  121  A    between atoms: _293  and  _294
REMARK  122  A    between atoms: _293  and  _296
REMARK  123  A    between atoms: _296  and  _297
REMARK  124  A    between atoms: _300  and  _302
REMARK  125  A    between atoms: _302  and  _303
REMARK  126  A    between atoms: _302  and  _305
REMARK  127  A    between atoms: _305  and  _306
REMARK  128  A    between atoms: _309  and  _311
REMARK  129  A    between atoms: _311  and  _312
REMARK  130  A    between atoms: _311  and  _314
REMARK  131  A    between atoms: _314  and  _315
REMARK  132  A    between atoms: _318  and  _320
REMARK  133  A    between atoms: _320  and  _321
REMARK  134  A    between atoms: _320  and  _323
REMARK  135  A    between atoms: _323  and  _324
REMARK  136  A    between atoms: _327  and  _329
REMARK  137  A    between atoms: _329  and  _330
REMARK  138  A    between atoms: _329  and  _332
REMARK  139  A    between atoms: _332  and  _333
REMARK  140  A    between atoms: _336  and  _338
REMARK  141  A    between atoms: _338  and  _339
REMARK  142  A    between atoms: _341  and  _343
REMARK  143  A    between atoms: _343  and  _344
REMARK  144  A    between atoms: _347  and  _349
REMARK  145  A    between atoms: _349  and  _350
REMARK  146  A    between atoms: _349  and  _352
REMARK  147  A    between atoms: _352  and  _353
REMARK  148  A    between atoms: _356  and  _358
REMARK  149  A    between atoms: _358  and  _359
REMARK  150  A    between atoms: _358  and  _361
REMARK  151  A    between atoms: _361  and  _362
REMARK  152  A    between atoms: _365  and  _367
REMARK  153  A    between atoms: _367  and  _368
REMARK  154  A    between atoms: _367  and  _370
REMARK  155  A    between atoms: _370  and  _371
REMARK  156  A    between atoms: _374  and  _376
REMARK  157  A    between atoms: _376  and  _377
REMARK  158  A    between atoms: _376  and  _379
REMARK  159  A    between atoms: _379  and  _380
REMARK  160  A    between atoms: _383  and  _385
REMARK  161  A    between atoms: _385  and  _386
REMARK  162  A    between atoms: _385  and  _388
REMARK  163  A    between atoms: _388  and  _389
REMARK  164  A    between atoms: _389  and  _390
REMARK  165  A    between atoms: _390  and  _391
REMARK  166  A    between atoms: _391  and  _392
REMARK  167  A    between atoms: _396  and  _398
REMARK  168  A    between atoms: _398  and  _399
REMARK  169  A    between atoms: _398  and  _401
REMARK  170  A    between atoms: _401  and  _402
REMARK  171  A    between atoms: _402  and  _403
REMARK  172  A    between atoms: _405  and  _407
REMARK  173  A    between atoms: _407  and  _408
REMARK  174  A    between atoms: _407  and  _410
REMARK  175  A    between atoms: _413  and  _415
REMARK  176  A    between atoms: _415  and  _416
REMARK  177  A    between atoms: _418  and  _420
REMARK  178  A    between atoms: _420  and  _421
REMARK  179  A    between atoms: _423  and  _425
REMARK  180  A    between atoms: _425  and  _426
REMARK  181  A    between atoms: _425  and  _428
REMARK  182  A    between atoms: _428  and  _429
REMARK  183  A    between atoms: _432  and  _434
REMARK  184  A    between atoms: _434  and  _435
REMARK  185  A    between atoms: _437  and  _439
REMARK  186  A    between atoms: _439  and  _440
REMARK  187  A    between atoms: _442  and  _444
REMARK  188  A    between atoms: _444  and  _445
REMARK  189  A    between atoms: _444  and  _447
REMARK  190  A    between atoms: _447  and  _448
REMARK  191  A    between atoms: _454  and  _456
REMARK  192  A    between atoms: _456  and  _457
REMARK  193  A    between atoms: _456  and  _459
REMARK  194  A    between atoms: _459  and  _460
REMARK  195  A    between atoms: _463  and  _465
REMARK  196  A    between atoms: _465  and  _466
REMARK  197  A    between atoms: _465  and  _468
REMARK  198  A    between atoms: _471  and  _473
REMARK  199  A    between atoms: _473  and  _474
REMARK  200  A    between atoms: _473  and  _476
REMARK  201  A    between atoms: _476  and  _477
REMARK  202  A    between atoms: _480  and  _482
REMARK  203  A    between atoms: _482  and  _483
REMARK  204  A    between atoms: _482  and  _485
REMARK  205  A    between atoms: _485  and  _486
REMARK  206  A    between atoms: _490  and  _491
REMARK  207  A    between atoms: _496  and  _498
REMARK  208  A    between atoms: _498  and  _499
REMARK  209  A    between atoms: _498  and  _501
REMARK  210  A    between atoms: _501  and  _502
REMARK  211  A    between atoms: _505  and  _507
REMARK  212  A    between atoms: _507  and  _508
REMARK  213  A    between atoms: _507  and  _510
REMARK  214  A    between atoms: _510  and  _511
REMARK  215  A    between atoms: _516  and  _518
REMARK  216  A    between atoms: _518  and  _519
REMARK  217  A    between atoms: _518  and  _521
REMARK  218  A    between atoms: _521  and  _522
REMARK  219  A    between atoms: _525  and  _527
REMARK  220  A    between atoms: _527  and  _528
REMARK  221  A    between atoms: _527  and  _530
REMARK  222  A    between atoms: _530  and  _531
REMARK  223  A    between atoms: _534  and  _536
REMARK  224  A    between atoms: _536  and  _537
REMARK  225  A    between atoms: _539  and  _541
REMARK  226  A    between atoms: _541  and  _542
REMARK  227  A    between atoms: _541  and  _544
REMARK  228  A    between atoms: _544  and  _545
REMARK  229  A    between atoms: _545  and  _546
REMARK  230  A    between atoms: _546  and  _547
REMARK                            x       y       z     vdW  Elec       q    Type
REMARK                         _______ _______ _______ _____ _____    ______ ____
ROOT
ATOM      1  CA  LEU A   1      11.715  30.924  -6.676  0.00  0.00    +0.133 C 
ENDROOT
BRANCH   1   2
ATOM      2  N   LEU A   1      12.139  31.925  -5.720  0.00  0.00    -0.239 NA
ATOM      3  H   LEU A   1      11.586  32.805  -5.677  0.00  0.00    +0.142 HD
ENDBRANCH   1   2
BRANCH   1   4
ATOM      4  C   LEU A   1      12.318  31.137  -8.037  0.00  0.00    +0.224 C 
ATOM      5  O   LEU A   1      12.275  32.276  -8.447  0.00  0.00    -0.287 OA
ENDBRANCH   1   4
BRANCH   1   6
ATOM      6  CB  LEU A   1      10.216  30.960  -6.816  0.00  0.00    +0.025 C 
BRANCH   6   7
ATOM      7  CG  LEU A   1       9.416  30.545  -5.606  0.00  0.00    +0.002 C 
ATOM      8  CD2 LEU A   1       9.489  29.038  -5.379  0.00  0.00    +0.000 C 
ATOM      9  CD1 LEU A   1       8.009  30.904  -5.860  0.00  0.00    +0.000 C 
ENDBRANCH   6   7
ENDBRANCH   1   6
TORSDOF 4
REMARK  Name = ../refined-set-2016/1tcx/1tcx_pocket.pdb
REMARK  230 active torsions:
REMARK  status: ('A' for Active; 'I' for Inactive)
REMARK    1  A    between atoms: _1  and  _3
REMARK    2  A    between atoms: _3  and  _4
REMARK    3  A    between atoms: _3  and  _6
REMARK    4  A    between atoms: _6  and  _7
REMARK    5  A    between atoms: _7  and  _8
REMARK    6  A    between atoms: _8  and  _9
REMARK    7  A    between atoms: _18  and  _20
REMARK    8  A    between atoms: _20  and  _21
REMARK    9  A    between atoms: _20  and  _23
REMARK   10  A    between atoms: _23  and  _24
REMARK   11  A    between atoms: _27  and  _29
REMARK   12  A    between atoms: _29  and  _30
REMARK   13  A    between atoms: _29  and  _32
REMARK   14  A    between atoms: _32  and  _33
REMARK   15  A    between atoms: _36  and  _38
REMARK   16  A    between atoms: _38  and  _39
REMARK   17  A    between atoms: _38  and  _41
REMARK   18  A    between atoms: _41  and  _42
REMARK   19  A    between atoms: _45  and  _47
REMARK   20  A    between atoms: _47  and  _48
REMARK   21  A    between atoms: _47  and  _50
REMARK   22  A    between atoms: _50  and  _51
REMARK   23  A    between atoms: _54  and  _56
REMARK   24  A    between atoms: _56  and  _57
REMARK   25  A    between atoms: _59  and  _61
REMARK   26  A    between atoms: _61  and  _62
REMARK   27  A    between atoms: _65  and  _67
REMARK   28  A    between atoms: _67  and  _68
REMARK   29  A    between atoms: _67  and  _70
REMARK   30  A    between atoms: _70  and  _71
REMARK   31  A    between atoms: _74  and  _76
REMARK   32  A    between atoms: _76  and  _77
REMARK   33  A    between atoms: _76  and  _79
REMARK   34  A    between atoms: _79  and  _80
REMARK   35  A    between atoms: _83  and  _85
REMARK   36  A    between atoms: _85  and  _86
REMARK   37  A    between atoms: _85  and  _88
REMARK   38  A    between atoms: _88  and  _89
REMARK   39  A    between atoms: _92  and  _94
REMARK   40  A    between atoms: _94  and  _95
REMARK   41  A    between atoms: _94  and  _97
REMARK   42  A    between atoms: _97  and  _98
REMARK   43  A    between atoms: _101  and  _103
REMARK   44  A    between atoms: _103  and  _104
REMARK   45  A    between atoms: _103  and  _106
REMARK   46  A    between atoms: _106  and  _107
REMARK   47  A    between atoms: _107  and  _108
REMARK   48  A    between atoms: _108  and  _109
REMARK   49  A    between atoms: _109  and  _110
REMARK   50  A    between atoms: _114  and  _116
REMARK   51  A    between atoms: _116  and  _117
REMARK   52  A    between atoms: _116  and  _119
REMARK   53  A    between atoms: _119  and  _120
REMARK   54  A    between atoms: _120  and  _121
REMARK   55  A    between atoms: _123  and  _125
REMARK   56  A    between atoms: _125  and  _126
REMARK   57  A    between atoms: _125  and  _128
REMARK   58  A    between atoms: _131  and  _133
REMARK   59  A    between atoms: _133  and  _134
REMARK   60  A    between atoms: _136  and  _138
REMARK   61  A    between atoms: _138  and  _139
REMARK   62  A    between atoms: _141  and  _143
REMARK   63  A    between atoms: _143  and  _144
REMARK   64  A    between atoms: _143  and  _146
REMARK   65  A    between atoms: _146  and  _147
REMARK   66  A    between atoms: _150  and  _152
REMARK   67  A    between atoms: _152  and  _153
REMARK   68  A    between atoms: _155  and  _157
REMARK   69  A    between atoms: _157  and  _158
REMARK   70  A    between atoms: _160  and  _162
REMARK   71  A    between atoms: _162  and  _163
REMARK   72  A    between atoms: _162  and  _165
REMARK   73  A    between atoms: _165  and  _166
REMARK   74  A    between atoms: _172  and  _174
REMARK   75  A    between atoms: _174  and  _175
REMARK   76  A    between atoms: _174  and  _177
REMARK   77  A    between atoms: _177  and  _178
REMARK   78  A    between atoms: _181  and  _183
REMARK   79  A    between atoms: _183  and  _184
REMARK   80  A    between atoms: _183  and  _186
REMARK   81  A    between atoms: _189  and  _191
REMARK   82  A    between atoms: _191  and  _192
REMARK   83  A    between atoms: _191  and  _194
REMARK   84  A    between atoms: _194  and  _195
REMARK   85  A    between atoms: _198  and  _200
REMARK   86  A    between atoms: _200  and  _201
REMARK   87  A    between atoms: _200  and  _203
REMARK   88  A    between atoms: _203  and  _204
REMARK   89  A    between atoms: _208  and  _209
REMARK   90  A    between atoms: _214  and  _216
REMARK   91  A    between atoms: _216  and  _217
REMARK   92  A    between atoms: _216  and  _219
REMARK   93  A    between atoms: _219  and  _220
REMARK   94  A    between atoms: _223  and  _225
REMARK   95  A    between atoms: _225  and  _226
REMARK   96  A    between atoms: _225  and  _228
REMARK   97  A    between atoms: _228  and  _229
REMARK   98  A    between atoms: _234  and  _236
REMARK   99  A    between atoms: _236  and  _237
REMARK  100  A    between atoms: _236  and  _239
REMARK  101  A    between atoms: _239  and  _240
REMARK  102  A    between atoms: _243  and  _245
REMARK  103  A    between atoms: _245  and  _246
REMARK  104  A    between atoms: _245  and  _248
REMARK  105  A    between atoms: _248  and  _249
REMARK  106  A    between atoms: _252  and  _254
REMARK  107  A    between atoms: _254  and  _255
REMARK  108  A    between atoms: _257  and  _259
REMARK  109  A    between atoms: _259  and  _260
REMARK  110  A    between atoms: _259  and  _262
REMARK  111  A    between atoms: _262  and  _263
REMARK  112  A    between atoms: _263  and  _264
REMARK  113  A    between atoms: _264  and  _265
REMARK  114  A    between atoms: _274  and  _276
REMARK  115  A    between atoms: _276  and  _277
REMARK  116  A    between atoms: _276  and  _279
REMARK  117  A    between atoms: _279  and  _280
REMARK  118  A    between atoms: _280  and  _281
REMARK  119  A    between atoms: _281  and  _282
REMARK  120  A    between atoms: _291  and  _293
REMARK  121  A    between atoms: _293  and  _294
REMARK  122  A    between atoms: _293  and  _296
REMARK  123  A    between atoms: _296  and  _297
REMARK  124  A    between atoms: _300  and  _302
REMARK  125  A    between atoms: _302  and  _303
REMARK  126  A    between atoms: _302  and  _305
REMARK  127  A    between atoms: _305  and  _306
REMARK  128  A    between atoms: _309  and  _311
REMARK  129  A    between atoms: _311  and  _312
REMARK  130  A    between atoms: _311  and  _314
REMARK  131  A    between atoms: _314  and  _315
REMARK  132  A    between atoms: _318  and  _320
REMARK  133  A    between atoms: _320  and  _321
REMARK  134  A    between atoms: _320  and  _323
REMARK  135  A    between atoms: _323  and  _324
REMARK  136  A    between atoms: _327  and  _329
REMARK  137  A    between atoms: _329  and  _330
REMARK  138  A    between atoms: _329  and  _332
REMARK  139  A    between atoms: _332  and  _333
REMARK  140  A    between atoms: _336  and  _338
REMARK  141  A    between atoms: _338  and  _339
REMARK  142  A    between atoms: _341  and  _343
REMARK  143  A    between atoms: _343  and  _344
REMARK  144  A    between atoms: _347  and  _349
REMARK  145  A    between atoms: _349  and  _350
REMARK  146  A    between atoms: _349  and  _352
REMARK  147  A    between atoms: _352  and  _353
REMARK  148  A    between atoms: _356  and  _358
REMARK  149  A    between atoms: _358  and  _359
REMARK  150  A    between atoms: _358  and  _361
REMARK  151  A    between atoms: _361  and  _362
REMARK  152  A    between atoms: _365  and  _367
REMARK  153  A    between atoms: _367  and  _368
REMARK  154  A    between atoms: _367  and  _370
REMARK  155  A    between atoms: _370  and  _371
REMARK  156  A    between atoms: _374  and  _376
REMARK  157  A    between atoms: _376  and  _377
REMARK  158  A    between atoms: _376  and  _379
REMARK  159  A    between atoms: _379  and  _380
REMARK  160  A    between atoms: _383  and  _385
REMARK  161  A    between atoms: _385  and  _386
REMARK  162  A    between atoms: _385  and  _388
REMARK  163  A    between atoms: _388  and  _389
REMARK  164  A    between atoms: _389  and  _390
REMARK  165  A    between atoms: _390  and  _391
REMARK  166  A    between atoms: _391  and  _392
REMARK  167  A    between atoms: _396  and  _398
REMARK  168  A    between atoms: _398  and  _399
REMARK  169  A    between atoms: _398  and  _401
REMARK  170  A    between atoms: _401  and  _402
REMARK  171  A    between atoms: _402  and  _403
REMARK  172  A    between atoms: _405  and  _407
REMARK  173  A    between atoms: _407  and  _408
REMARK  174  A    between atoms: _407  and  _410
REMARK  175  A    between atoms: _413  and  _415
REMARK  176  A    between atoms: _415  and  _416
REMARK  177  A    between atoms: _418  and  _420
REMARK  178  A    between atoms: _420  and  _421
REMARK  179  A    between atoms: _423  and  _425
REMARK  180  A    between atoms: _425  and  _426
REMARK  181  A    between atoms: _425  and  _428
REMARK  182  A    between atoms: _428  and  _429
REMARK  183  A    between atoms: _432  and  _434
REMARK  184  A    between atoms: _434  and  _435
REMARK  185  A    between atoms: _437  and  _439
REMARK  186  A    between atoms: _439  and  _440
REMARK  187  A    between atoms: _442  and  _444
REMARK  188  A    between atoms: _444  and  _445
REMARK  189  A    between atoms: _444  and  _447
REMARK  190  A    between atoms: _447  and  _448
REMARK  191  A    between atoms: _454  and  _456
REMARK  192  A    between atoms: _456  and  _457
REMARK  193  A    between atoms: _456  and  _459
REMARK  194  A    between atoms: _459  and  _460
REMARK  195  A    between atoms: _463  and  _465
REMARK  196  A    between atoms: _465  and  _466
REMARK  197  A    between atoms: _465  and  _468
REMARK  198  A    between atoms: _471  and  _473
REMARK  199  A    between atoms: _473  and  _474
REMARK  200  A    between atoms: _473  and  _476
REMARK  201  A    between atoms: _476  and  _477
REMARK  202  A    between atoms: _480  and  _482
REMARK  203  A    between atoms: _482  and  _483
REMARK  204  A    between atoms: _482  and  _485
REMARK  205  A    between atoms: _485  and  _486
REMARK  206  A    between atoms: _490  and  _491
REMARK  207  A    between atoms: _496  and  _498
REMARK  208  A    between atoms: _498  and  _499
REMARK  209  A    between atoms: _498  and  _501
REMARK  210  A    between atoms: _501  and  _502
REMARK  211  A    between atoms: _505  and  _507
REMARK  212  A    between atoms: _507  and  _508
REMARK  213  A    between atoms: _507  and  _510
REMARK  214  A    between atoms: _510  and  _511
REMARK  215  A    between atoms: _516  and  _518
REMARK  216  A    between atoms: _518  and  _519
REMARK  217  A    between atoms: _518  and  _521
REMARK  218  A    between atoms: _521  and  _522
REMARK  219  A    between atoms: _525  and  _527
REMARK  220  A    between atoms: _527  and  _528
REMARK  221  A    between atoms: _527  and  _530
REMARK  222  A    between atoms: _530  and  _531
REMARK  223  A    between atoms: _534  and  _536
REMARK  224  A    between atoms: _536  and  _537
REMARK  225  A    between atoms: _539  and  _541
REMARK  226  A    between atoms: _541  and  _542
REMARK  227  A    between atoms: _541  and  _544
REMARK  228  A    between atoms: _544  and  _545
REMARK  229  A    between atoms: _545  and  _546
REMARK  230  A    between atoms: _546  and  _547
REMARK                            x       y       z     vdW  Elec       q    Type
REMARK                         _______ _______ _______ _____ _____    ______ ____
ROOT
ATOM      1  C   GLY A   5      18.788  24.232   4.262  0.00  0.00    +0.243 C 
ATOM      2  O   GLY A   5      18.534  23.469   5.185  0.00  0.00    -0.273 OA
ATOM      3  N   ALA A   6      18.862  23.820   2.995  0.00  0.00    -0.297 N 
ATOM      4  H   ALA A   6      19.060  24.540   2.272  0.00  0.00    +0.150 HD
ENDROOT
BRANCH   3   5
ATOM      5  CA  ALA A   6      18.690  22.452   2.540  0.00  0.00    +0.149 C 
ATOM      6  CB  ALA A   6      17.763  22.333   1.347  0.00  0.00    +0.031 C 
BRANCH   5   7
ATOM      7  C   ALA A   6      20.001  21.860   2.088  0.00  0.00    +0.241 C 
ATOM      8  N   ASP A   7      20.536  20.797   2.710  0.00  0.00    -0.297 N 
ATOM      9  H   ASP A   7      20.054  20.369   3.526  0.00  0.00    +0.150 HD
ATOM     10  O   ALA A   6      20.547  22.374   1.108  0.00  0.00    -0.273 OA
BRANCH   8  11
ATOM     11  CA  ASP A   7      21.806  20.246   2.227  0.00  0.00    +0.160 C 
BRANCH  11  12
ATOM     12  C   ASP A   7      21.709  19.631   0.839  0.00  0.00    +0.241 C 
ATOM     13  N   ASP A   8      20.549  19.093   0.504  0.00  0.00    -0.297 N 
ATOM     14  H   ASP A   8      19.771  19.148   1.192  0.00  0.00    +0.150 HD
ATOM     15  O   ASP A   7      22.626  19.767   0.044  0.00  0.00    -0.273 OA
BRANCH  13  16
ATOM     16  CA  ASP A   8      20.292  18.435  -0.754  0.00  0.00    +0.160 C 
BRANCH  16  17
ATOM     17  C   ASP A   8      19.167  19.114  -1.465  0.00  0.00    +0.241 C 
ATOM     18  O   ASP A   8      18.453  19.909  -0.830  0.00  0.00    -0.273 OA
ATOM     19  N   THR A   9      19.012  18.669  -2.717  0.00  0.00    -0.295 N 
ATOM     20  H   THR A   9      19.674  17.933  -3.035  0.00  0.00    +0.150 HD
BRANCH  19  21
ATOM     21  CA  THR A   9      18.012  19.108  -3.683  0.00  0.00    +0.176 C 
BRANCH  21  22
ATOM     22  C   THR A   9      16.863  18.079  -3.723  0.00  0.00    +0.243 C 
ATOM     23  N   ILE A  10      15.608  18.372  -3.425  0.00  0.00    -0.298 N 
ATOM     24  H   ILE A  10      15.393  19.356  -3.165  0.00  0.00    +0.150 HD
ATOM     25  O   THR A   9      17.110  16.950  -4.092  0.00  0.00    -0.273 OA
BRANCH  23  26
ATOM     26  CA  ILE A  10      14.498  17.416  -3.434  0.00  0.00    +0.137 C 
BRANCH  26  27
ATOM     27  C   ILE A  10      13.466  17.925  -4.433  0.00  0.00    +0.227 C 
ATOM     28  O   ILE A  10      13.090  19.102  -4.335  0.00  0.00    -0.286 OA
ENDBRANCH  26  27
BRANCH  26  29
ATOM     29  CB  ILE A  10      13.758  17.318  -2.084  0.00  0.00    +0.026 C 
ATOM     30  CG2 ILE A  10      12.881  16.053  -2.110  0.00  0.00    +0.002 C 
BRANCH  29  31
ATOM     31  CG1 ILE A  10      14.723  17.301  -0.927  0.00  0.00    +0.002 C 
ATOM     32  CD1 ILE A  10      13.933  17.008   0.340  0.00  0.00    +0.000 C 
ENDBRANCH  29  31
ENDBRANCH  26  29
ENDBRANCH  23  26
ENDBRANCH  21  22
BRANCH  21  33
ATOM     33  CB  THR A   9      18.733  19.238  -5.024  0.00  0.00    +0.137 C 
ATOM     34  CG2 THR A   9      17.790  19.414  -6.223  0.00  0.00    +0.034 C 
BRANCH  33  35
ATOM     35  OG1 THR A   9      19.642  20.337  -4.860  0.00  0.00    -0.382 OA
ATOM     36  HG1 THR A   9      20.274  20.134  -4.125  0.00  0.00    +0.210 HD
ENDBRANCH  33  35
ENDBRANCH  21  33
ENDBRANCH  19  21
ENDBRANCH  16  17
BRANCH  16  37
ATOM     37  CB  ASP A   8      19.905  16.979  -0.470  0.00  0.00    +0.143 C 
BRANCH  37  38
ATOM     38  CG  ASP A   8      20.916  16.172   0.344  0.00  0.00    +0.367 C 
ATOM     39  OD2 ASP A   8      20.516  15.669   1.403  0.00  0.00    -0.246 OA
ATOM     40  OD1 ASP A   8      22.087  16.026  -0.075  0.00  0.00    -0.246 OA
ENDBRANCH  37  38
ENDBRANCH  16  37
ENDBRANCH  13  16
ENDBRANCH  11  12
BRANCH  11  41
ATOM     41  CB  ASP A   7      22.318  19.165   3.164  0.00  0.00    +0.143 C 
BRANCH  41  42
ATOM     42  CG  ASP A   7      22.540  19.570   4.596  0.00  0.00    +0.367 C 
ATOM     43  OD2 ASP A   7      22.325  18.713   5.451  0.00  0.00    -0.246 OA
ATOM     44  OD1 ASP A   7      22.893  20.716   4.894  0.00  0.00    -0.246 OA
ENDBRANCH  41  42
ENDBRANCH  11  41
ENDBRANCH   8  11
ENDBRANCH   5   7
ENDBRANCH   3   5
BRANCH   1  45
ATOM     45  CA  GLY A   5      18.966  25.681   4.672  0.00  0.00    +0.176 C 
BRANCH  45  48
ATOM     46  C   THR A   4      20.343  26.722   3.025  0.00  0.00    +0.243 C 
ATOM     47  O   THR A   4      21.330  26.212   3.570  0.00  0.00    -0.273 OA
ATOM     48  N   GLY A   5      19.142  26.539   3.537  0.00  0.00    -0.295 N 
ATOM     49  H   GLY A   5      18.320  27.018   3.117  0.00  0.00    +0.150 HD
BRANCH  46  50
ATOM     50  CA  THR A   4      20.452  27.627   1.776  0.00  0.00    +0.176 C 
BRANCH  50  52
ATOM     51  C   ASP A   3      18.590  26.754   0.446  0.00  0.00    +0.241 C 
ATOM     52  N   THR A   4      19.165  27.761   1.109  0.00  0.00    -0.295 N 
ATOM     53  H   THR A   4      18.674  28.677   1.150  0.00  0.00    +0.150 HD
ATOM     54  O   ASP A   3      19.086  25.622   0.440  0.00  0.00    -0.273 OA
BRANCH  51  55
ATOM     55  CA  ASP A   3      17.217  27.007  -0.206  0.00  0.00    +0.160 C 
BRANCH  55  58
ATOM     56  C   LEU A   2      16.740  28.360  -2.168  0.00  0.00    +0.241 C 
ATOM     57  O   LEU A   2      16.413  29.333  -1.501  0.00  0.00    -0.273 OA
ATOM     58  N   ASP A   3      17.168  27.232  -1.637  0.00  0.00    -0.297 N 
ATOM     59  H   ASP A   3      17.484  26.471  -2.272  0.00  0.00    +0.150 HD
BRANCH  56  60
ATOM     60  CA  LEU A   2      16.714  28.410  -3.685  0.00  0.00    +0.149 C 
BRANCH  60  63
ATOM     61  C   LEU A   1      14.550  27.367  -4.014  0.00  0.00    +0.238 C 
ATOM     62  O   LEU A   1      15.041  26.265  -3.762  0.00  0.00    -0.274 OA
ATOM     63  N   LEU A   2      15.298  28.467  -3.982  0.00  0.00    -0.297 N 
ATOM     64  H   LEU A   2      14.856  29.388  -4.175  0.00  0.00    +0.150 HD
BRANCH  61  65
ATOM     65  CA  LEU A   1      13.072  27.395  -4.297  0.00  0.00    +0.145 C 
BRANCH  65  66
ATOM     66  N   LEU A   1      12.649  26.499  -5.326  0.00  0.00    -0.238 NA
ATOM     67  H   LEU A   1      12.437  25.515  -5.064  0.00  0.00    +0.142 HD
ENDBRANCH  65  66
BRANCH  65  68
ATOM     68  CB  LEU A   1      12.308  27.022  -3.043  0.00  0.00    +0.026 C 
BRANCH  68  69
ATOM     69  CG  LEU A   1      12.420  27.927  -1.836  0.00  0.00    +0.002 C 
ATOM     70  CD2 LEU A   1      11.793  27.257  -0.653  0.00  0.00    +0.000 C 
ATOM     71  CD1 LEU A   1      11.699  29.209  -2.129  0.00  0.00    +0.000 C 
ENDBRANCH  68  69
ENDBRANCH  65  68
ENDBRANCH  61  65
ENDBRANCH  60  63
BRANCH  60  72
ATOM     72  CB  LEU A   2      17.390  29.635  -4.190  0.00  0.00    +0.029 C 
BRANCH  72  73
ATOM     73  CG  LEU A   2      17.208  29.856  -5.686  0.00  0.00    +0.002 C 
ATOM     74  CD2 LEU A   2      17.951  31.155  -6.054  0.00  0.00    +0.000 C 
ATOM     75  CD1 LEU A   2      17.760  28.703  -6.486  0.00  0.00    +0.000 C 
ENDBRANCH  72  73
ENDBRANCH  60  72
ENDBRANCH  56  60
ENDBRANCH  55  58
BRANCH  55  76
ATOM     76  CB  ASP A   3      16.238  25.854  -0.031  0.00  0.00    +0.143 C 
BRANCH  76  77
ATOM     77  CG  ASP A   3      15.696  25.524   1.327  0.00  0.00    +0.367 C 
ATOM     78  OD2 ASP A   3      16.306  25.813   2.367  0.00  0.00    -0.246 OA
ATOM     79  OD1 ASP A   3      14.597  24.955   1.332  0.00  0.00    -0.246 OA
ENDBRANCH  76  77
ENDBRANCH  55  76
ENDBRANCH  51  55
ENDBRANCH  50  52
BRANCH  50  80
ATOM     80  CB  THR A   4      20.973  28.987   2.222  0.00  0.00    +0.137 C 
ATOM     81  CG2 THR A   4      21.193  29.863   1.015  0.00  0.00    +0.034 C 
BRANCH  80  82
ATOM     82  OG1 THR A   4      20.041  29.600   3.125  0.00  0.00    -0.382 OA
ATOM     83  HG1 THR A   4      19.923  29.020   3.919  0.00  0.00    +0.210 HD
ENDBRANCH  80  82
ENDBRANCH  50  80
ENDBRANCH  46  50
ENDBRANCH  45  48
ENDBRANCH   1  45
TORSDOF 36
REMARK  Name = ../refined-set-2016/1tcx/1tcx_pocket.pdb
REMARK  230 active torsions:
REMARK  status: ('A' for Active; 'I' for Inactive)
REMARK    1  A    between atoms: _1  and  _3
REMARK    2  A    between atoms: _3  and  _4
REMARK    3  A    between atoms: _3  and  _6
REMARK    4  A    between atoms: _6  and  _7
REMARK    5  A    between atoms: _7  and  _8
REMARK    6  A    between atoms: _8  and  _9
REMARK    7  A    between atoms: _18  and  _20
REMARK    8  A    between atoms: _20  and  _21
REMARK    9  A    between atoms: _20  and  _23
REMARK   10  A    between atoms: _23  and  _24
REMARK   11  A    between atoms: _27  and  _29
REMARK   12  A    between atoms: _29  and  _30
REMARK   13  A    between atoms: _29  and  _32
REMARK   14  A    between atoms: _32  and  _33
REMARK   15  A    between atoms: _36  and  _38
REMARK   16  A    between atoms: _38  and  _39
REMARK   17  A    between atoms: _38  and  _41
REMARK   18  A    between atoms: _41  and  _42
REMARK   19  A    between atoms: _45  and  _47
REMARK   20  A    between atoms: _47  and  _48
REMARK   21  A    between atoms: _47  and  _50
REMARK   22  A    between atoms: _50  and  _51
REMARK   23  A    between atoms: _54  and  _56
REMARK   24  A    between atoms: _56  and  _57
REMARK   25  A    between atoms: _59  and  _61
REMARK   26  A    between atoms: _61  and  _62
REMARK   27  A    between atoms: _65  and  _67
REMARK   28  A    between atoms: _67  and  _68
REMARK   29  A    between atoms: _67  and  _70
REMARK   30  A    between atoms: _70  and  _71
REMARK   31  A    between atoms: _74  and  _76
REMARK   32  A    between atoms: _76  and  _77
REMARK   33  A    between atoms: _76  and  _79
REMARK   34  A    between atoms: _79  and  _80
REMARK   35  A    between atoms: _83  and  _85
REMARK   36  A    between atoms: _85  and  _86
REMARK   37  A    between atoms: _85  and  _88
REMARK   38  A    between atoms: _88  and  _89
REMARK   39  A    between atoms: _92  and  _94
REMARK   40  A    between atoms: _94  and  _95
REMARK   41  A    between atoms: _94  and  _97
REMARK   42  A    between atoms: _97  and  _98
REMARK   43  A    between atoms: _101  and  _103
REMARK   44  A    between atoms: _103  and  _104
REMARK   45  A    between atoms: _103  and  _106
REMARK   46  A    between atoms: _106  and  _107
REMARK   47  A    between atoms: _107  and  _108
REMARK   48  A    between atoms: _108  and  _109
REMARK   49  A    between atoms: _109  and  _110
REMARK   50  A    between atoms: _114  and  _116
REMARK   51  A    between atoms: _116  and  _117
REMARK   52  A    between atoms: _116  and  _119
REMARK   53  A    between atoms: _119  and  _120
REMARK   54  A    between atoms: _120  and  _121
REMARK   55  A    between atoms: _123  and  _125
REMARK   56  A    between atoms: _125  and  _126
REMARK   57  A    between atoms: _125  and  _128
REMARK   58  A    between atoms: _131  and  _133
REMARK   59  A    between atoms: _133  and  _134
REMARK   60  A    between atoms: _136  and  _138
REMARK   61  A    between atoms: _138  and  _139
REMARK   62  A    between atoms: _141  and  _143
REMARK   63  A    between atoms: _143  and  _144
REMARK   64  A    between atoms: _143  and  _146
REMARK   65  A    between atoms: _146  and  _147
REMARK   66  A    between atoms: _150  and  _152
REMARK   67  A    between atoms: _152  and  _153
REMARK   68  A    between atoms: _155  and  _157
REMARK   69  A    between atoms: _157  and  _158
REMARK   70  A    between atoms: _160  and  _162
REMARK   71  A    between atoms: _162  and  _163
REMARK   72  A    between atoms: _162  and  _165
REMARK   73  A    between atoms: _165  and  _166
REMARK   74  A    between atoms: _172  and  _174
REMARK   75  A    between atoms: _174  and  _175
REMARK   76  A    between atoms: _174  and  _177
REMARK   77  A    between atoms: _177  and  _178
REMARK   78  A    between atoms: _181  and  _183
REMARK   79  A    between atoms: _183  and  _184
REMARK   80  A    between atoms: _183  and  _186
REMARK   81  A    between atoms: _189  and  _191
REMARK   82  A    between atoms: _191  and  _192
REMARK   83  A    between atoms: _191  and  _194
REMARK   84  A    between atoms: _194  and  _195
REMARK   85  A    between atoms: _198  and  _200
REMARK   86  A    between atoms: _200  and  _201
REMARK   87  A    between atoms: _200  and  _203
REMARK   88  A    between atoms: _203  and  _204
REMARK   89  A    between atoms: _208  and  _209
REMARK   90  A    between atoms: _214  and  _216
REMARK   91  A    between atoms: _216  and  _217
REMARK   92  A    between atoms: _216  and  _219
REMARK   93  A    between atoms: _219  and  _220
REMARK   94  A    between atoms: _223  and  _225
REMARK   95  A    between atoms: _225  and  _226
REMARK   96  A    between atoms: _225  and  _228
REMARK   97  A    between atoms: _228  and  _229
REMARK   98  A    between atoms: _234  and  _236
REMARK   99  A    between atoms: _236  and  _237
REMARK  100  A    between atoms: _236  and  _239
REMARK  101  A    between atoms: _239  and  _240
REMARK  102  A    between atoms: _243  and  _245
REMARK  103  A    between atoms: _245  and  _246
REMARK  104  A    between atoms: _245  and  _248
REMARK  105  A    between atoms: _248  and  _249
REMARK  106  A    between atoms: _252  and  _254
REMARK  107  A    between atoms: _254  and  _255
REMARK  108  A    between atoms: _257  and  _259
REMARK  109  A    between atoms: _259  and  _260
REMARK  110  A    between atoms: _259  and  _262
REMARK  111  A    between atoms: _262  and  _263
REMARK  112  A    between atoms: _263  and  _264
REMARK  113  A    between atoms: _264  and  _265
REMARK  114  A    between atoms: _274  and  _276
REMARK  115  A    between atoms: _276  and  _277
REMARK  116  A    between atoms: _276  and  _279
REMARK  117  A    between atoms: _279  and  _280
REMARK  118  A    between atoms: _280  and  _281
REMARK  119  A    between atoms: _281  and  _282
REMARK  120  A    between atoms: _291  and  _293
REMARK  121  A    between atoms: _293  and  _294
REMARK  122  A    between atoms: _293  and  _296
REMARK  123  A    between atoms: _296  and  _297
REMARK  124  A    between atoms: _300  and  _302
REMARK  125  A    between atoms: _302  and  _303
REMARK  126  A    between atoms: _302  and  _305
REMARK  127  A    between atoms: _305  and  _306
REMARK  128  A    between atoms: _309  and  _311
REMARK  129  A    between atoms: _311  and  _312
REMARK  130  A    between atoms: _311  and  _314
REMARK  131  A    between atoms: _314  and  _315
REMARK  132  A    between atoms: _318  and  _320
REMARK  133  A    between atoms: _320  and  _321
REMARK  134  A    between atoms: _320  and  _323
REMARK  135  A    between atoms: _323  and  _324
REMARK  136  A    between atoms: _327  and  _329
REMARK  137  A    between atoms: _329  and  _330
REMARK  138  A    between atoms: _329  and  _332
REMARK  139  A    between atoms: _332  and  _333
REMARK  140  A    between atoms: _336  and  _338
REMARK  141  A    between atoms: _338  and  _339
REMARK  142  A    between atoms: _341  and  _343
REMARK  143  A    between atoms: _343  and  _344
REMARK  144  A    between atoms: _347  and  _349
REMARK  145  A    between atoms: _349  and  _350
REMARK  146  A    between atoms: _349  and  _352
REMARK  147  A    between atoms: _352  and  _353
REMARK  148  A    between atoms: _356  and  _358
REMARK  149  A    between atoms: _358  and  _359
REMARK  150  A    between atoms: _358  and  _361
REMARK  151  A    between atoms: _361  and  _362
REMARK  152  A    between atoms: _365  and  _367
REMARK  153  A    between atoms: _367  and  _368
REMARK  154  A    between atoms: _367  and  _370
REMARK  155  A    between atoms: _370  and  _371
REMARK  156  A    between atoms: _374  and  _376
REMARK  157  A    between atoms: _376  and  _377
REMARK  158  A    between atoms: _376  and  _379
REMARK  159  A    between atoms: _379  and  _380
REMARK  160  A    between atoms: _383  and  _385
REMARK  161  A    between atoms: _385  and  _386
REMARK  162  A    between atoms: _385  and  _388
REMARK  163  A    between atoms: _388  and  _389
REMARK  164  A    between atoms: _389  and  _390
REMARK  165  A    between atoms: _390  and  _391
REMARK  166  A    between atoms: _391  and  _392
REMARK  167  A    between atoms: _396  and  _398
REMARK  168  A    between atoms: _398  and  _399
REMARK  169  A    between atoms: _398  and  _401
REMARK  170  A    between atoms: _401  and  _402
REMARK  171  A    between atoms: _402  and  _403
REMARK  172  A    between atoms: _405  and  _407
REMARK  173  A    between atoms: _407  and  _408
REMARK  174  A    between atoms: _407  and  _410
REMARK  175  A    between atoms: _413  and  _415
REMARK  176  A    between atoms: _415  and  _416
REMARK  177  A    between atoms: _418  and  _420
REMARK  178  A    between atoms: _420  and  _421
REMARK  179  A    between atoms: _423  and  _425
REMARK  180  A    between atoms: _425  and  _426
REMARK  181  A    between atoms: _425  and  _428
REMARK  182  A    between atoms: _428  and  _429
REMARK  183  A    between atoms: _432  and  _434
REMARK  184  A    between atoms: _434  and  _435
REMARK  185  A    between atoms: _437  and  _439
REMARK  186  A    between atoms: _439  and  _440
REMARK  187  A    between atoms: _442  and  _444
REMARK  188  A    between atoms: _444  and  _445
REMARK  189  A    between atoms: _444  and  _447
REMARK  190  A    between atoms: _447  and  _448
REMARK  191  A    between atoms: _454  and  _456
REMARK  192  A    between atoms: _456  and  _457
REMARK  193  A    between atoms: _456  and  _459
REMARK  194  A    between atoms: _459  and  _460
REMARK  195  A    between atoms: _463  and  _465
REMARK  196  A    between atoms: _465  and  _466
REMARK  197  A    between atoms: _465  and  _468
REMARK  198  A    between atoms: _471  and  _473
REMARK  199  A    between atoms: _473  and  _474
REMARK  200  A    between atoms: _473  and  _476
REMARK  201  A    between atoms: _476  and  _477
REMARK  202  A    between atoms: _480  and  _482
REMARK  203  A    between atoms: _482  and  _483
REMARK  204  A    between atoms: _482  and  _485
REMARK  205  A    between atoms: _485  and  _486
REMARK  206  A    between atoms: _490  and  _491
REMARK  207  A    between atoms: _496  and  _498
REMARK  208  A    between atoms: _498  and  _499
REMARK  209  A    between atoms: _498  and  _501
REMARK  210  A    between atoms: _501  and  _502
REMARK  211  A    between atoms: _505  and  _507
REMARK  212  A    between atoms: _507  and  _508
REMARK  213  A    between atoms: _507  and  _510
REMARK  214  A    between atoms: _510  and  _511
REMARK  215  A    between atoms: _516  and  _518
REMARK  216  A    between atoms: _518  and  _519
REMARK  217  A    between atoms: _518  and  _521
REMARK  218  A    between atoms: _521  and  _522
REMARK  219  A    between atoms: _525  and  _527
REMARK  220  A    between atoms: _527  and  _528
REMARK  221  A    between atoms: _527  and  _530
REMARK  222  A    between atoms: _530  and  _531
REMARK  223  A    between atoms: _534  and  _536
REMARK  224  A    between atoms: _536  and  _537
REMARK  225  A    between atoms: _539  and  _541
REMARK  226  A    between atoms: _541  and  _542
REMARK  227  A    between atoms: _541  and  _544
REMARK  228  A    between atoms: _544  and  _545
REMARK  229  A    between atoms: _545  and  _546
REMARK  230  A    between atoms: _546  and  _547
REMARK                            x       y       z     vdW  Elec       q    Type
REMARK                         _______ _______ _______ _____ _____    ______ ____
ROOT
ATOM      1  C   GLY A   5      12.608  18.898   9.288  0.00  0.00    +0.243 C 
ATOM      2  O   GLY A   5      12.777  18.217  10.299  0.00  0.00    -0.273 OA
ATOM      3  N   ILE A   6      11.842  19.982   9.258  0.00  0.00    -0.297 N 
ATOM      4  H   ILE A   6      11.717  20.472   8.349  0.00  0.00    +0.150 HD
ENDROOT
BRANCH   3   5
ATOM      5  CA  ILE A   6      11.160  20.527  10.444  0.00  0.00    +0.149 C 
BRANCH   5   6
ATOM      6  C   ILE A   6      10.086  19.553  10.928  0.00  0.00    +0.241 C 
ATOM      7  O   ILE A   6       9.970  19.415  12.143  0.00  0.00    -0.273 OA
ATOM      8  N   GLY A   7       9.343  18.824  10.092  0.00  0.00    -0.295 N 
ATOM      9  H   GLY A   7       9.499  18.877   9.065  0.00  0.00    +0.150 HD
BRANCH   8  10
ATOM     10  CA  GLY A   7       8.314  17.956  10.636  0.00  0.00    +0.176 C 
BRANCH  10  11
ATOM     11  C   GLY A   7       8.715  16.508  10.818  0.00  0.00    +0.243 C 
ATOM     12  O   GLY A   7       7.834  15.690  11.072  0.00  0.00    -0.273 OA
ATOM     13  N   GLY A   8       9.974  16.132  10.652  0.00  0.00    -0.295 N 
ATOM     14  H   GLY A   8      10.700  16.845  10.439  0.00  0.00    +0.150 HD
BRANCH  13  15
ATOM     15  CA  GLY A   8      10.351  14.732  10.764  0.00  0.00    +0.176 C 
BRANCH  15  16
ATOM     16  C   GLY A   8      11.011  14.226   9.506  0.00  0.00    +0.243 C 
ATOM     17  N   PHE A   9      10.928  12.929   9.213  0.00  0.00    -0.297 N 
ATOM     18  H   PHE A   9      10.297  12.331   9.785  0.00  0.00    +0.150 HD
ATOM     19  O   GLY A   8      11.538  15.056   8.765  0.00  0.00    -0.273 OA
BRANCH  17  20
ATOM     20  CA  PHE A   9      11.685  12.304   8.121  0.00  0.00    +0.153 C 
BRANCH  20  21
ATOM     21  C   PHE A   9      10.846  11.752   6.992  0.00  0.00    +0.241 C 
ATOM     22  O   PHE A   9       9.697  11.380   7.234  0.00  0.00    -0.273 OA
ATOM     23  N   ILE A  10      11.336  11.797   5.771  0.00  0.00    -0.298 N 
ATOM     24  H   ILE A  10      12.269  12.234   5.629  0.00  0.00    +0.150 HD
BRANCH  23  25
ATOM     25  CA  ILE A  10      10.635  11.264   4.605  0.00  0.00    +0.137 C 
BRANCH  25  26
ATOM     26  CB  ILE A  10      10.212  12.327   3.552  0.00  0.00    +0.026 C 
ATOM     27  CG2 ILE A  10       9.161  13.166   4.219  0.00  0.00    +0.002 C 
BRANCH  26  28
ATOM     28  CG1 ILE A  10      11.337  13.218   3.068  0.00  0.00    +0.002 C 
ATOM     29  CD1 ILE A  10      10.920  14.109   1.912  0.00  0.00    +0.000 C 
ENDBRANCH  26  28
ENDBRANCH  25  26
BRANCH  25  30
ATOM     30  C   ILE A  10      11.679  10.311   3.976  0.00  0.00    +0.227 C 
ATOM     31  O   ILE A  10      12.882  10.409   4.244  0.00  0.00    -0.286 OA
ENDBRANCH  25  30
ENDBRANCH  23  25
ENDBRANCH  20  21
BRANCH  20  32
ATOM     32  CB  PHE A   9      12.534  11.175   8.675  0.00  0.00    +0.055 C 
BRANCH  32  33
ATOM     33  CG  PHE A   9      13.796  11.610   9.374  0.00  0.00    -0.020 A 
ATOM     34  CD2 PHE A   9      13.772  12.065  10.699  0.00  0.00    -0.004 A 
ATOM     35  CE2 PHE A   9      14.950  12.510  11.330  0.00  0.00    -0.000 A 
ATOM     36  CZ  PHE A   9      16.169  12.500  10.639  0.00  0.00    -0.000 A 
ATOM     37  CE1 PHE A   9      16.213  12.041   9.310  0.00  0.00    -0.000 A 
ATOM     38  CD1 PHE A   9      15.029  11.600   8.690  0.00  0.00    -0.004 A 
ENDBRANCH  32  33
ENDBRANCH  20  32
ENDBRANCH  17  20
ENDBRANCH  15  16
ENDBRANCH  13  15
ENDBRANCH  10  11
ENDBRANCH   8  10
ENDBRANCH   5   6
BRANCH   5  39
ATOM     39  CB  ILE A   6      10.532  21.953  10.131  0.00  0.00    +0.027 C 
ATOM     40  CG2 ILE A   6       9.037  22.069   9.987  0.00  0.00    +0.002 C 
BRANCH  39  41
ATOM     41  CG1 ILE A   6      10.902  22.767  11.336  0.00  0.00    +0.002 C 
ATOM     42  CD1 ILE A   6      12.380  23.098  11.348  0.00  0.00    +0.000 C 
ENDBRANCH  39  41
ENDBRANCH   5  39
ENDBRANCH   3   5
BRANCH   1  43
ATOM     43  CA  GLY A   5      13.185  18.442   7.982  0.00  0.00    +0.176 C 
BRANCH  43  45
ATOM     44  C   GLY A   4      14.540  16.416   7.914  0.00  0.00    +0.243 C 
ATOM     45  N   GLY A   5      13.355  17.004   8.036  0.00  0.00    -0.295 N 
ATOM     46  H   GLY A   5      12.515  16.408   8.176  0.00  0.00    +0.150 HD
ATOM     47  O   GLY A   4      15.572  17.021   7.634  0.00  0.00    -0.273 OA
BRANCH  44  48
ATOM     48  CA  GLY A   4      14.646  14.914   8.021  0.00  0.00    +0.176 C 
BRANCH  48  50
ATOM     49  C   VAL A   3      15.004  13.526   6.021  0.00  0.00    +0.241 C 
ATOM     50  N   GLY A   4      15.475  14.364   6.946  0.00  0.00    -0.295 N 
ATOM     51  H   GLY A   4      16.477  14.639   6.902  0.00  0.00    +0.150 HD
ATOM     52  O   VAL A   3      13.860  13.091   6.069  0.00  0.00    -0.273 OA
BRANCH  49  53
ATOM     53  CA  VAL A   3      15.954  12.973   4.976  0.00  0.00    +0.149 C 
BRANCH  53  56
ATOM     54  C   MET A   2      16.453  10.631   4.766  0.00  0.00    +0.241 C 
ATOM     55  O   MET A   2      17.653  10.885   4.844  0.00  0.00    -0.273 OA
ATOM     56  N   VAL A   3      15.566  11.592   4.843  0.00  0.00    -0.297 N 
ATOM     57  H   VAL A   3      14.555  11.352   4.807  0.00  0.00    +0.150 HD
BRANCH  54  58
ATOM     58  CA  MET A   2      16.004   9.178   4.606  0.00  0.00    +0.149 C 
BRANCH  58  60
ATOM     59  C   LYS A   1      16.526   8.397   2.298  0.00  0.00    +0.238 C 
ATOM     60  N   MET A   2      16.887   8.734   3.523  0.00  0.00    -0.297 N 
ATOM     61  H   MET A   2      17.902   8.679   3.742  0.00  0.00    +0.150 HD
ATOM     62  O   LYS A   1      15.352   8.312   1.946  0.00  0.00    -0.274 OA
BRANCH  59  63
ATOM     63  CA  LYS A   1      17.680   7.971   1.382  0.00  0.00    +0.145 C 
BRANCH  63  64
ATOM     64  N   LYS A   1      17.176   6.935   0.483  0.00  0.00    -0.238 NA
ATOM     65  H   LYS A   1      16.179   6.979   0.190  0.00  0.00    +0.142 HD
ENDBRANCH  63  64
BRANCH  63  66
ATOM     66  CB  LYS A   1      18.224   9.167   0.595  0.00  0.00    +0.026 C 
BRANCH  66  67
ATOM     67  CG  LYS A   1      19.293   9.789   1.481  0.00  0.00    -0.000 C 
BRANCH  67  68
ATOM     68  CD  LYS A   1      19.989  11.030   0.939  0.00  0.00    -0.024 C 
BRANCH  68  69
ATOM     69  CE  LYS A   1      20.974  11.584   1.982  0.00  0.00    -0.086 C 
BRANCH  69  70
ATOM     70  NZ  LYS A   1      21.746  12.792   1.540  0.00  0.00    +0.380 N 
ATOM     71  HZ1 LYS A   1      22.383  13.094   2.305  0.00  0.00    -0.089 HD
ATOM     72  HZ2 LYS A   1      21.084  13.562   1.314  0.00  0.00    -0.089 HD
ATOM     73  HZ3 LYS A   1      22.305  12.555   0.696  0.00  0.00    -0.089 HD
ENDBRANCH  69  70
ENDBRANCH  68  69
ENDBRANCH  67  68
ENDBRANCH  66  67
ENDBRANCH  63  66
ENDBRANCH  59  63
ENDBRANCH  58  60
BRANCH  58  74
ATOM     74  CB  MET A   2      16.318   8.396   5.852  0.00  0.00    +0.041 C 
BRANCH  74  75
ATOM     75  CG  MET A   2      15.440   8.458   7.073  0.00  0.00    +0.060 C 
BRANCH  75  76
ATOM     76  SD  MET A   2      13.909   7.577   6.746  0.00  0.00    -0.139 S 
ATOM     77  CE  MET A   2      14.508   6.094   5.922  0.00  0.00    +0.069 C 
ENDBRANCH  75  76
ENDBRANCH  74  75
ENDBRANCH  58  74
ENDBRANCH  54  58
ENDBRANCH  53  56
BRANCH  53  78
ATOM     78  CB  VAL A   3      15.860  13.451   3.484  0.00  0.00    +0.027 C 
ATOM     79  CG2 VAL A   3      14.750  14.415   3.215  0.00  0.00    +0.002 C 
ATOM     80  CG1 VAL A   3      17.211  14.018   3.148  0.00  0.00    +0.002 C 
ENDBRANCH  53  78
ENDBRANCH  49  53
ENDBRANCH  48  50
ENDBRANCH  44  48
ENDBRANCH  43  45
ENDBRANCH   1  43
TORSDOF 35
REMARK  Name = ../refined-set-2016/1tcx/1tcx_pocket.pdb
REMARK  230 active torsions:
REMARK  status: ('A' for Active; 'I' for Inactive)
REMARK    1  A    between atoms: _1  and  _3
REMARK    2  A    between atoms: _3  and  _4
REMARK    3  A    between atoms: _3  and  _6
REMARK    4  A    between atoms: _6  and  _7
REMARK    5  A    between atoms: _7  and  _8
REMARK    6  A    between atoms: _8  and  _9
REMARK    7  A    between atoms: _18  and  _20
REMARK    8  A    between atoms: _20  and  _21
REMARK    9  A    between atoms: _20  and  _23
REMARK   10  A    between atoms: _23  and  _24
REMARK   11  A    between atoms: _27  and  _29
REMARK   12  A    between atoms: _29  and  _30
REMARK   13  A    between atoms: _29  and  _32
REMARK   14  A    between atoms: _32  and  _33
REMARK   15  A    between atoms: _36  and  _38
REMARK   16  A    between atoms: _38  and  _39
REMARK   17  A    between atoms: _38  and  _41
REMARK   18  A    between atoms: _41  and  _42
REMARK   19  A    between atoms: _45  and  _47
REMARK   20  A    between atoms: _47  and  _48
REMARK   21  A    between atoms: _47  and  _50
REMARK   22  A    between atoms: _50  and  _51
REMARK   23  A    between atoms: _54  and  _56
REMARK   24  A    between atoms: _56  and  _57
REMARK   25  A    between atoms: _59  and  _61
REMARK   26  A    between atoms: _61  and  _62
REMARK   27  A    between atoms: _65  and  _67
REMARK   28  A    between atoms: _67  and  _68
REMARK   29  A    between atoms: _67  and  _70
REMARK   30  A    between atoms: _70  and  _71
REMARK   31  A    between atoms: _74  and  _76
REMARK   32  A    between atoms: _76  and  _77
REMARK   33  A    between atoms: _76  and  _79
REMARK   34  A    between atoms: _79  and  _80
REMARK   35  A    between atoms: _83  and  _85
REMARK   36  A    between atoms: _85  and  _86
REMARK   37  A    between atoms: _85  and  _88
REMARK   38  A    between atoms: _88  and  _89
REMARK   39  A    between atoms: _92  and  _94
REMARK   40  A    between atoms: _94  and  _95
REMARK   41  A    between atoms: _94  and  _97
REMARK   42  A    between atoms: _97  and  _98
REMARK   43  A    between atoms: _101  and  _103
REMARK   44  A    between atoms: _103  and  _104
REMARK   45  A    between atoms: _103  and  _106
REMARK   46  A    between atoms: _106  and  _107
REMARK   47  A    between atoms: _107  and  _108
REMARK   48  A    between atoms: _108  and  _109
REMARK   49  A    between atoms: _109  and  _110
REMARK   50  A    between atoms: _114  and  _116
REMARK   51  A    between atoms: _116  and  _117
REMARK   52  A    between atoms: _116  and  _119
REMARK   53  A    between atoms: _119  and  _120
REMARK   54  A    between atoms: _120  and  _121
REMARK   55  A    between atoms: _123  and  _125
REMARK   56  A    between atoms: _125  and  _126
REMARK   57  A    between atoms: _125  and  _128
REMARK   58  A    between atoms: _131  and  _133
REMARK   59  A    between atoms: _133  and  _134
REMARK   60  A    between atoms: _136  and  _138
REMARK   61  A    between atoms: _138  and  _139
REMARK   62  A    between atoms: _141  and  _143
REMARK   63  A    between atoms: _143  and  _144
REMARK   64  A    between atoms: _143  and  _146
REMARK   65  A    between atoms: _146  and  _147
REMARK   66  A    between atoms: _150  and  _152
REMARK   67  A    between atoms: _152  and  _153
REMARK   68  A    between atoms: _155  and  _157
REMARK   69  A    between atoms: _157  and  _158
REMARK   70  A    between atoms: _160  and  _162
REMARK   71  A    between atoms: _162  and  _163
REMARK   72  A    between atoms: _162  and  _165
REMARK   73  A    between atoms: _165  and  _166
REMARK   74  A    between atoms: _172  and  _174
REMARK   75  A    between atoms: _174  and  _175
REMARK   76  A    between atoms: _174  and  _177
REMARK   77  A    between atoms: _177  and  _178
REMARK   78  A    between atoms: _181  and  _183
REMARK   79  A    between atoms: _183  and  _184
REMARK   80  A    between atoms: _183  and  _186
REMARK   81  A    between atoms: _189  and  _191
REMARK   82  A    between atoms: _191  and  _192
REMARK   83  A    between atoms: _191  and  _194
REMARK   84  A    between atoms: _194  and  _195
REMARK   85  A    between atoms: _198  and  _200
REMARK   86  A    between atoms: _200  and  _201
REMARK   87  A    between atoms: _200  and  _203
REMARK   88  A    between atoms: _203  and  _204
REMARK   89  A    between atoms: _208  and  _209
REMARK   90  A    between atoms: _214  and  _216
REMARK   91  A    between atoms: _216  and  _217
REMARK   92  A    between atoms: _216  and  _219
REMARK   93  A    between atoms: _219  and  _220
REMARK   94  A    between atoms: _223  and  _225
REMARK   95  A    between atoms: _225  and  _226
REMARK   96  A    between atoms: _225  and  _228
REMARK   97  A    between atoms: _228  and  _229
REMARK   98  A    between atoms: _234  and  _236
REMARK   99  A    between atoms: _236  and  _237
REMARK  100  A    between atoms: _236  and  _239
REMARK  101  A    between atoms: _239  and  _240
REMARK  102  A    between atoms: _243  and  _245
REMARK  103  A    between atoms: _245  and  _246
REMARK  104  A    between atoms: _245  and  _248
REMARK  105  A    between atoms: _248  and  _249
REMARK  106  A    between atoms: _252  and  _254
REMARK  107  A    between atoms: _254  and  _255
REMARK  108  A    between atoms: _257  and  _259
REMARK  109  A    between atoms: _259  and  _260
REMARK  110  A    between atoms: _259  and  _262
REMARK  111  A    between atoms: _262  and  _263
REMARK  112  A    between atoms: _263  and  _264
REMARK  113  A    between atoms: _264  and  _265
REMARK  114  A    between atoms: _274  and  _276
REMARK  115  A    between atoms: _276  and  _277
REMARK  116  A    between atoms: _276  and  _279
REMARK  117  A    between atoms: _279  and  _280
REMARK  118  A    between atoms: _280  and  _281
REMARK  119  A    between atoms: _281  and  _282
REMARK  120  A    between atoms: _291  and  _293
REMARK  121  A    between atoms: _293  and  _294
REMARK  122  A    between atoms: _293  and  _296
REMARK  123  A    between atoms: _296  and  _297
REMARK  124  A    between atoms: _300  and  _302
REMARK  125  A    between atoms: _302  and  _303
REMARK  126  A    between atoms: _302  and  _305
REMARK  127  A    between atoms: _305  and  _306
REMARK  128  A    between atoms: _309  and  _311
REMARK  129  A    between atoms: _311  and  _312
REMARK  130  A    between atoms: _311  and  _314
REMARK  131  A    between atoms: _314  and  _315
REMARK  132  A    between atoms: _318  and  _320
REMARK  133  A    between atoms: _320  and  _321
REMARK  134  A    between atoms: _320  and  _323
REMARK  135  A    between atoms: _323  and  _324
REMARK  136  A    between atoms: _327  and  _329
REMARK  137  A    between atoms: _329  and  _330
REMARK  138  A    between atoms: _329  and  _332
REMARK  139  A    between atoms: _332  and  _333
REMARK  140  A    between atoms: _336  and  _338
REMARK  141  A    between atoms: _338  and  _339
REMARK  142  A    between atoms: _341  and  _343
REMARK  143  A    between atoms: _343  and  _344
REMARK  144  A    between atoms: _347  and  _349
REMARK  145  A    between atoms: _349  and  _350
REMARK  146  A    between atoms: _349  and  _352
REMARK  147  A    between atoms: _352  and  _353
REMARK  148  A    between atoms: _356  and  _358
REMARK  149  A    between atoms: _358  and  _359
REMARK  150  A    between atoms: _358  and  _361
REMARK  151  A    between atoms: _361  and  _362
REMARK  152  A    between atoms: _365  and  _367
REMARK  153  A    between atoms: _367  and  _368
REMARK  154  A    between atoms: _367  and  _370
REMARK  155  A    between atoms: _370  and  _371
REMARK  156  A    between atoms: _374  and  _376
REMARK  157  A    between atoms: _376  and  _377
REMARK  158  A    between atoms: _376  and  _379
REMARK  159  A    between atoms: _379  and  _380
REMARK  160  A    between atoms: _383  and  _385
REMARK  161  A    between atoms: _385  and  _386
REMARK  162  A    between atoms: _385  and  _388
REMARK  163  A    between atoms: _388  and  _389
REMARK  164  A    between atoms: _389  and  _390
REMARK  165  A    between atoms: _390  and  _391
REMARK  166  A    between atoms: _391  and  _392
REMARK  167  A    between atoms: _396  and  _398
REMARK  168  A    between atoms: _398  and  _399
REMARK  169  A    between atoms: _398  and  _401
REMARK  170  A    between atoms: _401  and  _402
REMARK  171  A    between atoms: _402  and  _403
REMARK  172  A    between atoms: _405  and  _407
REMARK  173  A    between atoms: _407  and  _408
REMARK  174  A    between atoms: _407  and  _410
REMARK  175  A    between atoms: _413  and  _415
REMARK  176  A    between atoms: _415  and  _416
REMARK  177  A    between atoms: _418  and  _420
REMARK  178  A    between atoms: _420  and  _421
REMARK  179  A    between atoms: _423  and  _425
REMARK  180  A    between atoms: _425  and  _426
REMARK  181  A    between atoms: _425  and  _428
REMARK  182  A    between atoms: _428  and  _429
REMARK  183  A    between atoms: _432  and  _434
REMARK  184  A    between atoms: _434  and  _435
REMARK  185  A    between atoms: _437  and  _439
REMARK  186  A    between atoms: _439  and  _440
REMARK  187  A    between atoms: _442  and  _444
REMARK  188  A    between atoms: _444  and  _445
REMARK  189  A    between atoms: _444  and  _447
REMARK  190  A    between atoms: _447  and  _448
REMARK  191  A    between atoms: _454  and  _456
REMARK  192  A    between atoms: _456  and  _457
REMARK  193  A    between atoms: _456  and  _459
REMARK  194  A    between atoms: _459  and  _460
REMARK  195  A    between atoms: _463  and  _465
REMARK  196  A    between atoms: _465  and  _466
REMARK  197  A    between atoms: _465  and  _468
REMARK  198  A    between atoms: _471  and  _473
REMARK  199  A    between atoms: _473  and  _474
REMARK  200  A    between atoms: _473  and  _476
REMARK  201  A    between atoms: _476  and  _477
REMARK  202  A    between atoms: _480  and  _482
REMARK  203  A    between atoms: _482  and  _483
REMARK  204  A    between atoms: _482  and  _485
REMARK  205  A    between atoms: _485  and  _486
REMARK  206  A    between atoms: _490  and  _491
REMARK  207  A    between atoms: _496  and  _498
REMARK  208  A    between atoms: _498  and  _499
REMARK  209  A    between atoms: _498  and  _501
REMARK  210  A    between atoms: _501  and  _502
REMARK  211  A    between atoms: _505  and  _507
REMARK  212  A    between atoms: _507  and  _508
REMARK  213  A    between atoms: _507  and  _510
REMARK  214  A    between atoms: _510  and  _511
REMARK  215  A    between atoms: _516  and  _518
REMARK  216  A    between atoms: _518  and  _519
REMARK  217  A    between atoms: _518  and  _521
REMARK  218  A    between atoms: _521  and  _522
REMARK  219  A    between atoms: _525  and  _527
REMARK  220  A    between atoms: _527  and  _528
REMARK  221  A    between atoms: _527  and  _530
REMARK  222  A    between atoms: _530  and  _531
REMARK  223  A    between atoms: _534  and  _536
REMARK  224  A    between atoms: _536  and  _537
REMARK  225  A    between atoms: _539  and  _541
REMARK  226  A    between atoms: _541  and  _542
REMARK  227  A    between atoms: _541  and  _544
REMARK  228  A    between atoms: _544  and  _545
REMARK  229  A    between atoms: _545  and  _546
REMARK  230  A    between atoms: _546  and  _547
REMARK                            x       y       z     vdW  Elec       q    Type
REMARK                         _______ _______ _______ _____ _____    ______ ____
ROOT
ATOM      1  CA  VAL A   1      13.118   9.523  -0.985  0.00  0.00    +0.133 C 
ENDROOT
BRANCH   1   2
ATOM      2  CB  VAL A   1      13.753  10.984  -1.062  0.00  0.00    +0.023 C 
ATOM      3  CG2 VAL A   1      12.940  11.977  -0.252  0.00  0.00    +0.002 C 
ATOM      4  CG1 VAL A   1      15.138  11.009  -0.431  0.00  0.00    +0.002 C 
ENDBRANCH   1   2
BRANCH   1   5
ATOM      5  N   VAL A   1      13.117   8.990   0.380  0.00  0.00    -0.239 NA
ATOM      6  H   VAL A   1      14.019   8.678   0.793  0.00  0.00    +0.142 HD
ENDBRANCH   1   5
BRANCH   1   7
ATOM      7  C   VAL A   1      13.929   8.586  -1.871  0.00  0.00    +0.224 C 
ATOM      8  O   VAL A   1      14.490   7.607  -1.359  0.00  0.00    -0.287 OA
ENDBRANCH   1   7
TORSDOF 3
REMARK  Name = ../refined-set-2016/1tcx/1tcx_pocket.pdb
REMARK  230 active torsions:
REMARK  status: ('A' for Active; 'I' for Inactive)
REMARK    1  A    between atoms: _1  and  _3
REMARK    2  A    between atoms: _3  and  _4
REMARK    3  A    between atoms: _3  and  _6
REMARK    4  A    between atoms: _6  and  _7
REMARK    5  A    between atoms: _7  and  _8
REMARK    6  A    between atoms: _8  and  _9
REMARK    7  A    between atoms: _18  and  _20
REMARK    8  A    between atoms: _20  and  _21
REMARK    9  A    between atoms: _20  and  _23
REMARK   10  A    between atoms: _23  and  _24
REMARK   11  A    between atoms: _27  and  _29
REMARK   12  A    between atoms: _29  and  _30
REMARK   13  A    between atoms: _29  and  _32
REMARK   14  A    between atoms: _32  and  _33
REMARK   15  A    between atoms: _36  and  _38
REMARK   16  A    between atoms: _38  and  _39
REMARK   17  A    between atoms: _38  and  _41
REMARK   18  A    between atoms: _41  and  _42
REMARK   19  A    between atoms: _45  and  _47
REMARK   20  A    between atoms: _47  and  _48
REMARK   21  A    between atoms: _47  and  _50
REMARK   22  A    between atoms: _50  and  _51
REMARK   23  A    between atoms: _54  and  _56
REMARK   24  A    between atoms: _56  and  _57
REMARK   25  A    between atoms: _59  and  _61
REMARK   26  A    between atoms: _61  and  _62
REMARK   27  A    between atoms: _65  and  _67
REMARK   28  A    between atoms: _67  and  _68
REMARK   29  A    between atoms: _67  and  _70
REMARK   30  A    between atoms: _70  and  _71
REMARK   31  A    between atoms: _74  and  _76
REMARK   32  A    between atoms: _76  and  _77
REMARK   33  A    between atoms: _76  and  _79
REMARK   34  A    between atoms: _79  and  _80
REMARK   35  A    between atoms: _83  and  _85
REMARK   36  A    between atoms: _85  and  _86
REMARK   37  A    between atoms: _85  and  _88
REMARK   38  A    between atoms: _88  and  _89
REMARK   39  A    between atoms: _92  and  _94
REMARK   40  A    between atoms: _94  and  _95
REMARK   41  A    between atoms: _94  and  _97
REMARK   42  A    between atoms: _97  and  _98
REMARK   43  A    between atoms: _101  and  _103
REMARK   44  A    between atoms: _103  and  _104
REMARK   45  A    between atoms: _103  and  _106
REMARK   46  A    between atoms: _106  and  _107
REMARK   47  A    between atoms: _107  and  _108
REMARK   48  A    between atoms: _108  and  _109
REMARK   49  A    between atoms: _109  and  _110
REMARK   50  A    between atoms: _114  and  _116
REMARK   51  A    between atoms: _116  and  _117
REMARK   52  A    between atoms: _116  and  _119
REMARK   53  A    between atoms: _119  and  _120
REMARK   54  A    between atoms: _120  and  _121
REMARK   55  A    between atoms: _123  and  _125
REMARK   56  A    between atoms: _125  and  _126
REMARK   57  A    between atoms: _125  and  _128
REMARK   58  A    between atoms: _131  and  _133
REMARK   59  A    between atoms: _133  and  _134
REMARK   60  A    between atoms: _136  and  _138
REMARK   61  A    between atoms: _138  and  _139
REMARK   62  A    between atoms: _141  and  _143
REMARK   63  A    between atoms: _143  and  _144
REMARK   64  A    between atoms: _143  and  _146
REMARK   65  A    between atoms: _146  and  _147
REMARK   66  A    between atoms: _150  and  _152
REMARK   67  A    between atoms: _152  and  _153
REMARK   68  A    between atoms: _155  and  _157
REMARK   69  A    between atoms: _157  and  _158
REMARK   70  A    between atoms: _160  and  _162
REMARK   71  A    between atoms: _162  and  _163
REMARK   72  A    between atoms: _162  and  _165
REMARK   73  A    between atoms: _165  and  _166
REMARK   74  A    between atoms: _172  and  _174
REMARK   75  A    between atoms: _174  and  _175
REMARK   76  A    between atoms: _174  and  _177
REMARK   77  A    between atoms: _177  and  _178
REMARK   78  A    between atoms: _181  and  _183
REMARK   79  A    between atoms: _183  and  _184
REMARK   80  A    between atoms: _183  and  _186
REMARK   81  A    between atoms: _189  and  _191
REMARK   82  A    between atoms: _191  and  _192
REMARK   83  A    between atoms: _191  and  _194
REMARK   84  A    between atoms: _194  and  _195
REMARK   85  A    between atoms: _198  and  _200
REMARK   86  A    between atoms: _200  and  _201
REMARK   87  A    between atoms: _200  and  _203
REMARK   88  A    between atoms: _203  and  _204
REMARK   89  A    between atoms: _208  and  _209
REMARK   90  A    between atoms: _214  and  _216
REMARK   91  A    between atoms: _216  and  _217
REMARK   92  A    between atoms: _216  and  _219
REMARK   93  A    between atoms: _219  and  _220
REMARK   94  A    between atoms: _223  and  _225
REMARK   95  A    between atoms: _225  and  _226
REMARK   96  A    between atoms: _225  and  _228
REMARK   97  A    between atoms: _228  and  _229
REMARK   98  A    between atoms: _234  and  _236
REMARK   99  A    between atoms: _236  and  _237
REMARK  100  A    between atoms: _236  and  _239
REMARK  101  A    between atoms: _239  and  _240
REMARK  102  A    between atoms: _243  and  _245
REMARK  103  A    between atoms: _245  and  _246
REMARK  104  A    between atoms: _245  and  _248
REMARK  105  A    between atoms: _248  and  _249
REMARK  106  A    between atoms: _252  and  _254
REMARK  107  A    between atoms: _254  and  _255
REMARK  108  A    between atoms: _257  and  _259
REMARK  109  A    between atoms: _259  and  _260
REMARK  110  A    between atoms: _259  and  _262
REMARK  111  A    between atoms: _262  and  _263
REMARK  112  A    between atoms: _263  and  _264
REMARK  113  A    between atoms: _264  and  _265
REMARK  114  A    between atoms: _274  and  _276
REMARK  115  A    between atoms: _276  and  _277
REMARK  116  A    between atoms: _276  and  _279
REMARK  117  A    between atoms: _279  and  _280
REMARK  118  A    between atoms: _280  and  _281
REMARK  119  A    between atoms: _281  and  _282
REMARK  120  A    between atoms: _291  and  _293
REMARK  121  A    between atoms: _293  and  _294
REMARK  122  A    between atoms: _293  and  _296
REMARK  123  A    between atoms: _296  and  _297
REMARK  124  A    between atoms: _300  and  _302
REMARK  125  A    between atoms: _302  and  _303
REMARK  126  A    between atoms: _302  and  _305
REMARK  127  A    between atoms: _305  and  _306
REMARK  128  A    between atoms: _309  and  _311
REMARK  129  A    between atoms: _311  and  _312
REMARK  130  A    between atoms: _311  and  _314
REMARK  131  A    between atoms: _314  and  _315
REMARK  132  A    between atoms: _318  and  _320
REMARK  133  A    between atoms: _320  and  _321
REMARK  134  A    between atoms: _320  and  _323
REMARK  135  A    between atoms: _323  and  _324
REMARK  136  A    between atoms: _327  and  _329
REMARK  137  A    between atoms: _329  and  _330
REMARK  138  A    between atoms: _329  and  _332
REMARK  139  A    between atoms: _332  and  _333
REMARK  140  A    between atoms: _336  and  _338
REMARK  141  A    between atoms: _338  and  _339
REMARK  142  A    between atoms: _341  and  _343
REMARK  143  A    between atoms: _343  and  _344
REMARK  144  A    between atoms: _347  and  _349
REMARK  145  A    between atoms: _349  and  _350
REMARK  146  A    between atoms: _349  and  _352
REMARK  147  A    between atoms: _352  and  _353
REMARK  148  A    between atoms: _356  and  _358
REMARK  149  A    between atoms: _358  and  _359
REMARK  150  A    between atoms: _358  and  _361
REMARK  151  A    between atoms: _361  and  _362
REMARK  152  A    between atoms: _365  and  _367
REMARK  153  A    between atoms: _367  and  _368
REMARK  154  A    between atoms: _367  and  _370
REMARK  155  A    between atoms: _370  and  _371
REMARK  156  A    between atoms: _374  and  _376
REMARK  157  A    between atoms: _376  and  _377
REMARK  158  A    between atoms: _376  and  _379
REMARK  159  A    between atoms: _379  and  _380
REMARK  160  A    between atoms: _383  and  _385
REMARK  161  A    between atoms: _385  and  _386
REMARK  162  A    between atoms: _385  and  _388
REMARK  163  A    between atoms: _388  and  _389
REMARK  164  A    between atoms: _389  and  _390
REMARK  165  A    between atoms: _390  and  _391
REMARK  166  A    between atoms: _391  and  _392
REMARK  167  A    between atoms: _396  and  _398
REMARK  168  A    between atoms: _398  and  _399
REMARK  169  A    between atoms: _398  and  _401
REMARK  170  A    between atoms: _401  and  _402
REMARK  171  A    between atoms: _402  and  _403
REMARK  172  A    between atoms: _405  and  _407
REMARK  173  A    between atoms: _407  and  _408
REMARK  174  A    between atoms: _407  and  _410
REMARK  175  A    between atoms: _413  and  _415
REMARK  176  A    between atoms: _415  and  _416
REMARK  177  A    between atoms: _418  and  _420
REMARK  178  A    between atoms: _420  and  _421
REMARK  179  A    between atoms: _423  and  _425
REMARK  180  A    between atoms: _425  and  _426
REMARK  181  A    between atoms: _425  and  _428
REMARK  182  A    between atoms: _428  and  _429
REMARK  183  A    between atoms: _432  and  _434
REMARK  184  A    between atoms: _434  and  _435
REMARK  185  A    between atoms: _437  and  _439
REMARK  186  A    between atoms: _439  and  _440
REMARK  187  A    between atoms: _442  and  _444
REMARK  188  A    between atoms: _444  and  _445
REMARK  189  A    between atoms: _444  and  _447
REMARK  190  A    between atoms: _447  and  _448
REMARK  191  A    between atoms: _454  and  _456
REMARK  192  A    between atoms: _456  and  _457
REMARK  193  A    between atoms: _456  and  _459
REMARK  194  A    between atoms: _459  and  _460
REMARK  195  A    between atoms: _463  and  _465
REMARK  196  A    between atoms: _465  and  _466
REMARK  197  A    between atoms: _465  and  _468
REMARK  198  A    between atoms: _471  and  _473
REMARK  199  A    between atoms: _473  and  _474
REMARK  200  A    between atoms: _473  and  _476
REMARK  201  A    between atoms: _476  and  _477
REMARK  202  A    between atoms: _480  and  _482
REMARK  203  A    between atoms: _482  and  _483
REMARK  204  A    between atoms: _482  and  _485
REMARK  205  A    between atoms: _485  and  _486
REMARK  206  A    between atoms: _490  and  _491
REMARK  207  A    between atoms: _496  and  _498
REMARK  208  A    between atoms: _498  and  _499
REMARK  209  A    between atoms: _498  and  _501
REMARK  210  A    between atoms: _501  and  _502
REMARK  211  A    between atoms: _505  and  _507
REMARK  212  A    between atoms: _507  and  _508
REMARK  213  A    between atoms: _507  and  _510
REMARK  214  A    between atoms: _510  and  _511
REMARK  215  A    between atoms: _516  and  _518
REMARK  216  A    between atoms: _518  and  _519
REMARK  217  A    between atoms: _518  and  _521
REMARK  218  A    between atoms: _521  and  _522
REMARK  219  A    between atoms: _525  and  _527
REMARK  220  A    between atoms: _527  and  _528
REMARK  221  A    between atoms: _527  and  _530
REMARK  222  A    between atoms: _530  and  _531
REMARK  223  A    between atoms: _534  and  _536
REMARK  224  A    between atoms: _536  and  _537
REMARK  225  A    between atoms: _539  and  _541
REMARK  226  A    between atoms: _541  and  _542
REMARK  227  A    between atoms: _541  and  _544
REMARK  228  A    between atoms: _544  and  _545
REMARK  229  A    between atoms: _545  and  _546
REMARK  230  A    between atoms: _546  and  _547
REMARK                            x       y       z     vdW  Elec       q    Type
REMARK                         _______ _______ _______ _____ _____    ______ ____
ROOT
ATOM      1  CA  LEU A   1      16.352  13.257  -4.515  0.00  0.00    +0.133 C 
ENDROOT
BRANCH   1   2
ATOM      2  N   LEU A   1      17.187  14.174  -5.300  0.00  0.00    -0.239 NA
ATOM      3  H   LEU A   1      17.195  15.175  -5.018  0.00  0.00    +0.142 HD
ENDBRANCH   1   2
BRANCH   1   4
ATOM      4  C   LEU A   1      14.896  13.467  -4.968  0.00  0.00    +0.224 C 
ATOM      5  O   LEU A   1      14.516  14.619  -5.207  0.00  0.00    -0.287 OA
ENDBRANCH   1   4
BRANCH   1   6
ATOM      6  CB  LEU A   1      16.403  13.543  -2.981  0.00  0.00    +0.025 C 
BRANCH   6   7
ATOM      7  CG  LEU A   1      17.765  13.666  -2.306  0.00  0.00    +0.002 C 
ATOM      8  CD2 LEU A   1      17.509  13.866  -0.813  0.00  0.00    +0.000 C 
ATOM      9  CD1 LEU A   1      18.656  12.450  -2.589  0.00  0.00    +0.000 C 
ENDBRANCH   6   7
ENDBRANCH   1   6
TORSDOF 4
REMARK  Name = ../refined-set-2016/1tcx/1tcx_pocket.pdb
REMARK  230 active torsions:
REMARK  status: ('A' for Active; 'I' for Inactive)
REMARK    1  A    between atoms: _1  and  _3
REMARK    2  A    between atoms: _3  and  _4
REMARK    3  A    between atoms: _3  and  _6
REMARK    4  A    between atoms: _6  and  _7
REMARK    5  A    between atoms: _7  and  _8
REMARK    6  A    between atoms: _8  and  _9
REMARK    7  A    between atoms: _18  and  _20
REMARK    8  A    between atoms: _20  and  _21
REMARK    9  A    between atoms: _20  and  _23
REMARK   10  A    between atoms: _23  and  _24
REMARK   11  A    between atoms: _27  and  _29
REMARK   12  A    between atoms: _29  and  _30
REMARK   13  A    between atoms: _29  and  _32
REMARK   14  A    between atoms: _32  and  _33
REMARK   15  A    between atoms: _36  and  _38
REMARK   16  A    between atoms: _38  and  _39
REMARK   17  A    between atoms: _38  and  _41
REMARK   18  A    between atoms: _41  and  _42
REMARK   19  A    between atoms: _45  and  _47
REMARK   20  A    between atoms: _47  and  _48
REMARK   21  A    between atoms: _47  and  _50
REMARK   22  A    between atoms: _50  and  _51
REMARK   23  A    between atoms: _54  and  _56
REMARK   24  A    between atoms: _56  and  _57
REMARK   25  A    between atoms: _59  and  _61
REMARK   26  A    between atoms: _61  and  _62
REMARK   27  A    between atoms: _65  and  _67
REMARK   28  A    between atoms: _67  and  _68
REMARK   29  A    between atoms: _67  and  _70
REMARK   30  A    between atoms: _70  and  _71
REMARK   31  A    between atoms: _74  and  _76
REMARK   32  A    between atoms: _76  and  _77
REMARK   33  A    between atoms: _76  and  _79
REMARK   34  A    between atoms: _79  and  _80
REMARK   35  A    between atoms: _83  and  _85
REMARK   36  A    between atoms: _85  and  _86
REMARK   37  A    between atoms: _85  and  _88
REMARK   38  A    between atoms: _88  and  _89
REMARK   39  A    between atoms: _92  and  _94
REMARK   40  A    between atoms: _94  and  _95
REMARK   41  A    between atoms: _94  and  _97
REMARK   42  A    between atoms: _97  and  _98
REMARK   43  A    between atoms: _101  and  _103
REMARK   44  A    between atoms: _103  and  _104
REMARK   45  A    between atoms: _103  and  _106
REMARK   46  A    between atoms: _106  and  _107
REMARK   47  A    between atoms: _107  and  _108
REMARK   48  A    between atoms: _108  and  _109
REMARK   49  A    between atoms: _109  and  _110
REMARK   50  A    between atoms: _114  and  _116
REMARK   51  A    between atoms: _116  and  _117
REMARK   52  A    between atoms: _116  and  _119
REMARK   53  A    between atoms: _119  and  _120
REMARK   54  A    between atoms: _120  and  _121
REMARK   55  A    between atoms: _123  and  _125
REMARK   56  A    between atoms: _125  and  _126
REMARK   57  A    between atoms: _125  and  _128
REMARK   58  A    between atoms: _131  and  _133
REMARK   59  A    between atoms: _133  and  _134
REMARK   60  A    between atoms: _136  and  _138
REMARK   61  A    between atoms: _138  and  _139
REMARK   62  A    between atoms: _141  and  _143
REMARK   63  A    between atoms: _143  and  _144
REMARK   64  A    between atoms: _143  and  _146
REMARK   65  A    between atoms: _146  and  _147
REMARK   66  A    between atoms: _150  and  _152
REMARK   67  A    between atoms: _152  and  _153
REMARK   68  A    between atoms: _155  and  _157
REMARK   69  A    between atoms: _157  and  _158
REMARK   70  A    between atoms: _160  and  _162
REMARK   71  A    between atoms: _162  and  _163
REMARK   72  A    between atoms: _162  and  _165
REMARK   73  A    between atoms: _165  and  _166
REMARK   74  A    between atoms: _172  and  _174
REMARK   75  A    between atoms: _174  and  _175
REMARK   76  A    between atoms: _174  and  _177
REMARK   77  A    between atoms: _177  and  _178
REMARK   78  A    between atoms: _181  and  _183
REMARK   79  A    between atoms: _183  and  _184
REMARK   80  A    between atoms: _183  and  _186
REMARK   81  A    between atoms: _189  and  _191
REMARK   82  A    between atoms: _191  and  _192
REMARK   83  A    between atoms: _191  and  _194
REMARK   84  A    between atoms: _194  and  _195
REMARK   85  A    between atoms: _198  and  _200
REMARK   86  A    between atoms: _200  and  _201
REMARK   87  A    between atoms: _200  and  _203
REMARK   88  A    between atoms: _203  and  _204
REMARK   89  A    between atoms: _208  and  _209
REMARK   90  A    between atoms: _214  and  _216
REMARK   91  A    between atoms: _216  and  _217
REMARK   92  A    between atoms: _216  and  _219
REMARK   93  A    between atoms: _219  and  _220
REMARK   94  A    between atoms: _223  and  _225
REMARK   95  A    between atoms: _225  and  _226
REMARK   96  A    between atoms: _225  and  _228
REMARK   97  A    between atoms: _228  and  _229
REMARK   98  A    between atoms: _234  and  _236
REMARK   99  A    between atoms: _236  and  _237
REMARK  100  A    between atoms: _236  and  _239
REMARK  101  A    between atoms: _239  and  _240
REMARK  102  A    between atoms: _243  and  _245
REMARK  103  A    between atoms: _245  and  _246
REMARK  104  A    between atoms: _245  and  _248
REMARK  105  A    between atoms: _248  and  _249
REMARK  106  A    between atoms: _252  and  _254
REMARK  107  A    between atoms: _254  and  _255
REMARK  108  A    between atoms: _257  and  _259
REMARK  109  A    between atoms: _259  and  _260
REMARK  110  A    between atoms: _259  and  _262
REMARK  111  A    between atoms: _262  and  _263
REMARK  112  A    between atoms: _263  and  _264
REMARK  113  A    between atoms: _264  and  _265
REMARK  114  A    between atoms: _274  and  _276
REMARK  115  A    between atoms: _276  and  _277
REMARK  116  A    between atoms: _276  and  _279
REMARK  117  A    between atoms: _279  and  _280
REMARK  118  A    between atoms: _280  and  _281
REMARK  119  A    between atoms: _281  and  _282
REMARK  120  A    between atoms: _291  and  _293
REMARK  121  A    between atoms: _293  and  _294
REMARK  122  A    between atoms: _293  and  _296
REMARK  123  A    between atoms: _296  and  _297
REMARK  124  A    between atoms: _300  and  _302
REMARK  125  A    between atoms: _302  and  _303
REMARK  126  A    between atoms: _302  and  _305
REMARK  127  A    between atoms: _305  and  _306
REMARK  128  A    between atoms: _309  and  _311
REMARK  129  A    between atoms: _311  and  _312
REMARK  130  A    between atoms: _311  and  _314
REMARK  131  A    between atoms: _314  and  _315
REMARK  132  A    between atoms: _318  and  _320
REMARK  133  A    between atoms: _320  and  _321
REMARK  134  A    between atoms: _320  and  _323
REMARK  135  A    between atoms: _323  and  _324
REMARK  136  A    between atoms: _327  and  _329
REMARK  137  A    between atoms: _329  and  _330
REMARK  138  A    between atoms: _329  and  _332
REMARK  139  A    between atoms: _332  and  _333
REMARK  140  A    between atoms: _336  and  _338
REMARK  141  A    between atoms: _338  and  _339
REMARK  142  A    between atoms: _341  and  _343
REMARK  143  A    between atoms: _343  and  _344
REMARK  144  A    between atoms: _347  and  _349
REMARK  145  A    between atoms: _349  and  _350
REMARK  146  A    between atoms: _349  and  _352
REMARK  147  A    between atoms: _352  and  _353
REMARK  148  A    between atoms: _356  and  _358
REMARK  149  A    between atoms: _358  and  _359
REMARK  150  A    between atoms: _358  and  _361
REMARK  151  A    between atoms: _361  and  _362
REMARK  152  A    between atoms: _365  and  _367
REMARK  153  A    between atoms: _367  and  _368
REMARK  154  A    between atoms: _367  and  _370
REMARK  155  A    between atoms: _370  and  _371
REMARK  156  A    between atoms: _374  and  _376
REMARK  157  A    between atoms: _376  and  _377
REMARK  158  A    between atoms: _376  and  _379
REMARK  159  A    between atoms: _379  and  _380
REMARK  160  A    between atoms: _383  and  _385
REMARK  161  A    between atoms: _385  and  _386
REMARK  162  A    between atoms: _385  and  _388
REMARK  163  A    between atoms: _388  and  _389
REMARK  164  A    between atoms: _389  and  _390
REMARK  165  A    between atoms: _390  and  _391
REMARK  166  A    between atoms: _391  and  _392
REMARK  167  A    between atoms: _396  and  _398
REMARK  168  A    between atoms: _398  and  _399
REMARK  169  A    between atoms: _398  and  _401
REMARK  170  A    between atoms: _401  and  _402
REMARK  171  A    between atoms: _402  and  _403
REMARK  172  A    between atoms: _405  and  _407
REMARK  173  A    between atoms: _407  and  _408
REMARK  174  A    between atoms: _407  and  _410
REMARK  175  A    between atoms: _413  and  _415
REMARK  176  A    between atoms: _415  and  _416
REMARK  177  A    between atoms: _418  and  _420
REMARK  178  A    between atoms: _420  and  _421
REMARK  179  A    between atoms: _423  and  _425
REMARK  180  A    between atoms: _425  and  _426
REMARK  181  A    between atoms: _425  and  _428
REMARK  182  A    between atoms: _428  and  _429
REMARK  183  A    between atoms: _432  and  _434
REMARK  184  A    between atoms: _434  and  _435
REMARK  185  A    between atoms: _437  and  _439
REMARK  186  A    between atoms: _439  and  _440
REMARK  187  A    between atoms: _442  and  _444
REMARK  188  A    between atoms: _444  and  _445
REMARK  189  A    between atoms: _444  and  _447
REMARK  190  A    between atoms: _447  and  _448
REMARK  191  A    between atoms: _454  and  _456
REMARK  192  A    between atoms: _456  and  _457
REMARK  193  A    between atoms: _456  and  _459
REMARK  194  A    between atoms: _459  and  _460
REMARK  195  A    between atoms: _463  and  _465
REMARK  196  A    between atoms: _465  and  _466
REMARK  197  A    between atoms: _465  and  _468
REMARK  198  A    between atoms: _471  and  _473
REMARK  199  A    between atoms: _473  and  _474
REMARK  200  A    between atoms: _473  and  _476
REMARK  201  A    between atoms: _476  and  _477
REMARK  202  A    between atoms: _480  and  _482
REMARK  203  A    between atoms: _482  and  _483
REMARK  204  A    between atoms: _482  and  _485
REMARK  205  A    between atoms: _485  and  _486
REMARK  206  A    between atoms: _490  and  _491
REMARK  207  A    between atoms: _496  and  _498
REMARK  208  A    between atoms: _498  and  _499
REMARK  209  A    between atoms: _498  and  _501
REMARK  210  A    between atoms: _501  and  _502
REMARK  211  A    between atoms: _505  and  _507
REMARK  212  A    between atoms: _507  and  _508
REMARK  213  A    between atoms: _507  and  _510
REMARK  214  A    between atoms: _510  and  _511
REMARK  215  A    between atoms: _516  and  _518
REMARK  216  A    between atoms: _518  and  _519
REMARK  217  A    between atoms: _518  and  _521
REMARK  218  A    between atoms: _521  and  _522
REMARK  219  A    between atoms: _525  and  _527
REMARK  220  A    between atoms: _527  and  _528
REMARK  221  A    between atoms: _527  and  _530
REMARK  222  A    between atoms: _530  and  _531
REMARK  223  A    between atoms: _534  and  _536
REMARK  224  A    between atoms: _536  and  _537
REMARK  225  A    between atoms: _539  and  _541
REMARK  226  A    between atoms: _541  and  _542
REMARK  227  A    between atoms: _541  and  _544
REMARK  228  A    between atoms: _544  and  _545
REMARK  229  A    between atoms: _545  and  _546
REMARK  230  A    between atoms: _546  and  _547
REMARK                            x       y       z     vdW  Elec       q    Type
REMARK                         _______ _______ _______ _____ _____    ______ ____
ROOT
ATOM      1  C   ASN A   4      11.884  22.458  -4.630  0.00  0.00    +0.241 C 
ATOM      2  N   ILE A   5      12.942  21.843  -4.103  0.00  0.00    -0.297 N 
ATOM      3  H   ILE A   5      13.013  20.816  -4.249  0.00  0.00    +0.150 HD
ATOM      4  O   ASN A   4      11.694  23.682  -4.558  0.00  0.00    -0.273 OA
ENDROOT
BRANCH   2   5
ATOM      5  CA  ILE A   5      14.013  22.483  -3.337  0.00  0.00    +0.149 C 
BRANCH   5   6
ATOM      6  C   ILE A   5      15.409  22.387  -3.969  0.00  0.00    +0.241 C 
ATOM      7  O   ILE A   5      15.854  21.264  -4.218  0.00  0.00    -0.273 OA
ATOM      8  N   ILE A   6      16.101  23.496  -4.258  0.00  0.00    -0.297 N 
ATOM      9  H   ILE A   6      15.676  24.427  -4.074  0.00  0.00    +0.150 HD
BRANCH   8  10
ATOM     10  CA  ILE A   6      17.450  23.419  -4.831  0.00  0.00    +0.149 C 
BRANCH  10  11
ATOM     11  C   ILE A   6      18.305  23.631  -3.587  0.00  0.00    +0.241 C 
ATOM     12  O   ILE A   6      18.193  24.686  -2.943  0.00  0.00    -0.273 OA
ATOM     13  N   GLY A   7      19.054  22.603  -3.226  0.00  0.00    -0.295 N 
ATOM     14  H   GLY A   7      19.066  21.754  -3.827  0.00  0.00    +0.150 HD
BRANCH  13  15
ATOM     15  CA  GLY A   7      19.858  22.620  -2.021  0.00  0.00    +0.176 C 
BRANCH  15  16
ATOM     16  C   GLY A   7      21.290  23.064  -2.277  0.00  0.00    +0.243 C 
ATOM     17  N   ARG A   8      22.060  23.098  -1.220  0.00  0.00    -0.298 N 
ATOM     18  H   ARG A   8      21.673  22.812  -0.298  0.00  0.00    +0.150 HD
ATOM     19  O   GLY A   7      21.735  23.341  -3.405  0.00  0.00    -0.273 OA
BRANCH  17  20
ATOM     20  CA  ARG A   8      23.454  23.530  -1.310  0.00  0.00    +0.137 C 
BRANCH  20  21
ATOM     21  C   ARG A   8      24.314  22.730  -2.256  0.00  0.00    +0.227 C 
ATOM     22  O   ARG A   8      25.184  23.311  -2.908  0.00  0.00    -0.286 OA
ENDBRANCH  20  21
BRANCH  20  23
ATOM     23  CB  ARG A   8      24.106  23.522   0.065  0.00  0.00    +0.031 C 
BRANCH  23  24
ATOM     24  CG  ARG A   8      23.545  24.607   0.950  0.00  0.00    +0.045 C 
BRANCH  24  25
ATOM     25  CD  ARG A   8      24.323  24.656   2.268  0.00  0.00    +0.174 C 
BRANCH  25  26
ATOM     26  NE  ARG A   8      24.385  23.385   3.000  0.00  0.00    -0.265 N 
ATOM     27  HE  ARG A   8      23.525  23.067   3.491  0.00  0.00    +0.259 HD
ATOM     28  CZ  ARG A   8      25.473  22.606   3.079  0.00  0.00    +0.342 C 
ATOM     29  NH2 ARG A   8      25.433  21.458   3.716  0.00  0.00    -0.292 N 
ATOM     30 HH21 ARG A   8      24.550  21.144   4.167  0.00  0.00    +0.255 HD
ATOM     31 HH22 ARG A   8      26.284  20.863   3.770  0.00  0.00    +0.255 HD
ATOM     32  NH1 ARG A   8      26.615  22.910   2.503  0.00  0.00    -0.292 N 
ATOM     33 HH11 ARG A   8      27.430  22.271   2.595  0.00  0.00    +0.255 HD
ATOM     34 HH12 ARG A   8      26.703  23.790   1.955  0.00  0.00    +0.255 HD
ENDBRANCH  25  26
ENDBRANCH  24  25
ENDBRANCH  23  24
ENDBRANCH  20  23
ENDBRANCH  17  20
ENDBRANCH  15  16
ENDBRANCH  13  15
ENDBRANCH  10  11
BRANCH  10  35
ATOM     35  CB  ILE A   6      17.735  24.532  -5.897  0.00  0.00    +0.027 C 
ATOM     36  CG2 ILE A   6      19.169  24.399  -6.389  0.00  0.00    +0.002 C 
BRANCH  35  37
ATOM     37  CG1 ILE A   6      16.758  24.403  -7.088  0.00  0.00    +0.002 C 
ATOM     38  CD1 ILE A   6      16.866  23.116  -7.894  0.00  0.00    +0.000 C 
ENDBRANCH  35  37
ENDBRANCH  10  35
ENDBRANCH   8  10
ENDBRANCH   5   6
BRANCH   5  39
ATOM     39  CB  ILE A   5      14.043  21.828  -1.922  0.00  0.00    +0.027 C 
ATOM     40  CG2 ILE A   5      15.233  22.272  -1.075  0.00  0.00    +0.002 C 
BRANCH  39  41
ATOM     41  CG1 ILE A   5      12.834  22.302  -1.163  0.00  0.00    +0.002 C 
ATOM     42  CD1 ILE A   5      12.575  21.484   0.066  0.00  0.00    +0.000 C 
ENDBRANCH  39  41
ENDBRANCH   5  39
ENDBRANCH   2   5
BRANCH   1  43
ATOM     43  CA  ASN A   4      10.846  21.614  -5.364  0.00  0.00    +0.158 C 
BRANCH  43  46
ATOM     44  C   ILE A   3       9.189  21.663  -3.534  0.00  0.00    +0.241 C 
ATOM     45  O   ILE A   3       9.829  20.863  -2.852  0.00  0.00    -0.273 OA
ATOM     46  N   ASN A   4       9.584  22.040  -4.745  0.00  0.00    -0.297 N 
ATOM     47  H   ASN A   4       8.963  22.674  -5.287  0.00  0.00    +0.150 HD
BRANCH  44  48
ATOM     48  CA  ILE A   3       7.854  22.201  -2.997  0.00  0.00    +0.149 C 
BRANCH  48  50
ATOM     49  C   PRO A   2       6.062  21.199  -1.690  0.00  0.00    +0.241 C 
ATOM     50  N   ILE A   3       7.356  21.315  -1.963  0.00  0.00    -0.297 N 
ATOM     51  H   ILE A   3       8.037  20.750  -1.416  0.00  0.00    +0.150 HD
ATOM     52  O   PRO A   2       5.162  21.706  -2.359  0.00  0.00    -0.273 OA
BRANCH  49  58
ATOM     53  C   THR A   1       6.991  18.295  -1.118  0.00  0.00    +0.244 C 
ATOM     54  N   PRO A   2       6.700  19.257  -0.254  0.00  0.00    -0.272 N 
ATOM     55  CD  PRO A   2       7.172  19.375   1.143  0.00  0.00    +0.094 C 
ATOM     56  CG  PRO A   2       6.646  20.731   1.578  0.00  0.00    +0.024 C 
ATOM     57  CB  PRO A   2       5.469  21.033   0.728  0.00  0.00    +0.031 C 
ATOM     58  CA  PRO A   2       5.702  20.278  -0.562  0.00  0.00    +0.152 C 
ATOM     59  O   THR A   1       6.313  18.208  -2.141  0.00  0.00    -0.273 OA
BRANCH  53  60
ATOM     60  CA  THR A   1       8.127  17.335  -0.761  0.00  0.00    +0.172 C 
BRANCH  60  61
ATOM     61  N   THR A   1       7.781  16.009  -1.245  0.00  0.00    -0.236 NA
ATOM     62  H   THR A   1       7.983  15.763  -2.235  0.00  0.00    +0.142 HD
ENDBRANCH  60  61
BRANCH  60  63
ATOM     63  CB  THR A   1       9.510  17.774  -1.382  0.00  0.00    +0.135 C 
ATOM     64  CG2 THR A   1       9.525  17.788  -2.892  0.00  0.00    +0.034 C 
BRANCH  63  65
ATOM     65  OG1 THR A   1       9.783  19.105  -0.934  0.00  0.00    -0.383 OA
ATOM     66  HG1 THR A   1       9.060  19.709  -1.239  0.00  0.00    +0.210 HD
ENDBRANCH  63  65
ENDBRANCH  60  63
ENDBRANCH  53  60
ENDBRANCH  49  58
ENDBRANCH  48  50
BRANCH  48  67
ATOM     67  CB  ILE A   3       7.909  23.606  -2.252  0.00  0.00    +0.027 C 
ATOM     68  CG2 ILE A   3       9.053  23.631  -1.212  0.00  0.00    +0.002 C 
BRANCH  67  69
ATOM     69  CG1 ILE A   3       8.059  24.723  -3.251  0.00  0.00    +0.002 C 
ATOM     70  CD1 ILE A   3       7.992  26.068  -2.574  0.00  0.00    +0.000 C 
ENDBRANCH  67  69
ENDBRANCH  48  67
ENDBRANCH  44  48
ENDBRANCH  43  46
BRANCH  43  71
ATOM     71  CB  ASN A   4      10.867  21.950  -6.825  0.00  0.00    +0.114 C 
BRANCH  71  72
ATOM     72  CG  ASN A   4       9.945  21.123  -7.668  0.00  0.00    +0.222 C 
ATOM     73  OD1 ASN A   4       9.784  19.931  -7.447  0.00  0.00    -0.275 OA
ATOM     74  ND2 ASN A   4       9.309  21.677  -8.676  0.00  0.00    -0.329 N 
ATOM     75 HD21 ASN A   4       9.435  22.690  -8.877  0.00  0.00    +0.145 HD
ATOM     76 HD22 ASN A   4       8.680  21.103  -9.272  0.00  0.00    +0.145 HD
ENDBRANCH  71  72
ENDBRANCH  43  71
ENDBRANCH   1  43
TORSDOF 29
REMARK  Name = ../refined-set-2016/1tcx/1tcx_pocket.pdb
REMARK  230 active torsions:
REMARK  status: ('A' for Active; 'I' for Inactive)
REMARK    1  A    between atoms: _1  and  _3
REMARK    2  A    between atoms: _3  and  _4
REMARK    3  A    between atoms: _3  and  _6
REMARK    4  A    between atoms: _6  and  _7
REMARK    5  A    between atoms: _7  and  _8
REMARK    6  A    between atoms: _8  and  _9
REMARK    7  A    between atoms: _18  and  _20
REMARK    8  A    between atoms: _20  and  _21
REMARK    9  A    between atoms: _20  and  _23
REMARK   10  A    between atoms: _23  and  _24
REMARK   11  A    between atoms: _27  and  _29
REMARK   12  A    between atoms: _29  and  _30
REMARK   13  A    between atoms: _29  and  _32
REMARK   14  A    between atoms: _32  and  _33
REMARK   15  A    between atoms: _36  and  _38
REMARK   16  A    between atoms: _38  and  _39
REMARK   17  A    between atoms: _38  and  _41
REMARK   18  A    between atoms: _41  and  _42
REMARK   19  A    between atoms: _45  and  _47
REMARK   20  A    between atoms: _47  and  _48
REMARK   21  A    between atoms: _47  and  _50
REMARK   22  A    between atoms: _50  and  _51
REMARK   23  A    between atoms: _54  and  _56
REMARK   24  A    between atoms: _56  and  _57
REMARK   25  A    between atoms: _59  and  _61
REMARK   26  A    between atoms: _61  and  _62
REMARK   27  A    between atoms: _65  and  _67
REMARK   28  A    between atoms: _67  and  _68
REMARK   29  A    between atoms: _67  and  _70
REMARK   30  A    between atoms: _70  and  _71
REMARK   31  A    between atoms: _74  and  _76
REMARK   32  A    between atoms: _76  and  _77
REMARK   33  A    between atoms: _76  and  _79
REMARK   34  A    between atoms: _79  and  _80
REMARK   35  A    between atoms: _83  and  _85
REMARK   36  A    between atoms: _85  and  _86
REMARK   37  A    between atoms: _85  and  _88
REMARK   38  A    between atoms: _88  and  _89
REMARK   39  A    between atoms: _92  and  _94
REMARK   40  A    between atoms: _94  and  _95
REMARK   41  A    between atoms: _94  and  _97
REMARK   42  A    between atoms: _97  and  _98
REMARK   43  A    between atoms: _101  and  _103
REMARK   44  A    between atoms: _103  and  _104
REMARK   45  A    between atoms: _103  and  _106
REMARK   46  A    between atoms: _106  and  _107
REMARK   47  A    between atoms: _107  and  _108
REMARK   48  A    between atoms: _108  and  _109
REMARK   49  A    between atoms: _109  and  _110
REMARK   50  A    between atoms: _114  and  _116
REMARK   51  A    between atoms: _116  and  _117
REMARK   52  A    between atoms: _116  and  _119
REMARK   53  A    between atoms: _119  and  _120
REMARK   54  A    between atoms: _120  and  _121
REMARK   55  A    between atoms: _123  and  _125
REMARK   56  A    between atoms: _125  and  _126
REMARK   57  A    between atoms: _125  and  _128
REMARK   58  A    between atoms: _131  and  _133
REMARK   59  A    between atoms: _133  and  _134
REMARK   60  A    between atoms: _136  and  _138
REMARK   61  A    between atoms: _138  and  _139
REMARK   62  A    between atoms: _141  and  _143
REMARK   63  A    between atoms: _143  and  _144
REMARK   64  A    between atoms: _143  and  _146
REMARK   65  A    between atoms: _146  and  _147
REMARK   66  A    between atoms: _150  and  _152
REMARK   67  A    between atoms: _152  and  _153
REMARK   68  A    between atoms: _155  and  _157
REMARK   69  A    between atoms: _157  and  _158
REMARK   70  A    between atoms: _160  and  _162
REMARK   71  A    between atoms: _162  and  _163
REMARK   72  A    between atoms: _162  and  _165
REMARK   73  A    between atoms: _165  and  _166
REMARK   74  A    between atoms: _172  and  _174
REMARK   75  A    between atoms: _174  and  _175
REMARK   76  A    between atoms: _174  and  _177
REMARK   77  A    between atoms: _177  and  _178
REMARK   78  A    between atoms: _181  and  _183
REMARK   79  A    between atoms: _183  and  _184
REMARK   80  A    between atoms: _183  and  _186
REMARK   81  A    between atoms: _189  and  _191
REMARK   82  A    between atoms: _191  and  _192
REMARK   83  A    between atoms: _191  and  _194
REMARK   84  A    between atoms: _194  and  _195
REMARK   85  A    between atoms: _198  and  _200
REMARK   86  A    between atoms: _200  and  _201
REMARK   87  A    between atoms: _200  and  _203
REMARK   88  A    between atoms: _203  and  _204
REMARK   89  A    between atoms: _208  and  _209
REMARK   90  A    between atoms: _214  and  _216
REMARK   91  A    between atoms: _216  and  _217
REMARK   92  A    between atoms: _216  and  _219
REMARK   93  A    between atoms: _219  and  _220
REMARK   94  A    between atoms: _223  and  _225
REMARK   95  A    between atoms: _225  and  _226
REMARK   96  A    between atoms: _225  and  _228
REMARK   97  A    between atoms: _228  and  _229
REMARK   98  A    between atoms: _234  and  _236
REMARK   99  A    between atoms: _236  and  _237
REMARK  100  A    between atoms: _236  and  _239
REMARK  101  A    between atoms: _239  and  _240
REMARK  102  A    between atoms: _243  and  _245
REMARK  103  A    between atoms: _245  and  _246
REMARK  104  A    between atoms: _245  and  _248
REMARK  105  A    between atoms: _248  and  _249
REMARK  106  A    between atoms: _252  and  _254
REMARK  107  A    between atoms: _254  and  _255
REMARK  108  A    between atoms: _257  and  _259
REMARK  109  A    between atoms: _259  and  _260
REMARK  110  A    between atoms: _259  and  _262
REMARK  111  A    between atoms: _262  and  _263
REMARK  112  A    between atoms: _263  and  _264
REMARK  113  A    between atoms: _264  and  _265
REMARK  114  A    between atoms: _274  and  _276
REMARK  115  A    between atoms: _276  and  _277
REMARK  116  A    between atoms: _276  and  _279
REMARK  117  A    between atoms: _279  and  _280
REMARK  118  A    between atoms: _280  and  _281
REMARK  119  A    between atoms: _281  and  _282
REMARK  120  A    between atoms: _291  and  _293
REMARK  121  A    between atoms: _293  and  _294
REMARK  122  A    between atoms: _293  and  _296
REMARK  123  A    between atoms: _296  and  _297
REMARK  124  A    between atoms: _300  and  _302
REMARK  125  A    between atoms: _302  and  _303
REMARK  126  A    between atoms: _302  and  _305
REMARK  127  A    between atoms: _305  and  _306
REMARK  128  A    between atoms: _309  and  _311
REMARK  129  A    between atoms: _311  and  _312
REMARK  130  A    between atoms: _311  and  _314
REMARK  131  A    between atoms: _314  and  _315
REMARK  132  A    between atoms: _318  and  _320
REMARK  133  A    between atoms: _320  and  _321
REMARK  134  A    between atoms: _320  and  _323
REMARK  135  A    between atoms: _323  and  _324
REMARK  136  A    between atoms: _327  and  _329
REMARK  137  A    between atoms: _329  and  _330
REMARK  138  A    between atoms: _329  and  _332
REMARK  139  A    between atoms: _332  and  _333
REMARK  140  A    between atoms: _336  and  _338
REMARK  141  A    between atoms: _338  and  _339
REMARK  142  A    between atoms: _341  and  _343
REMARK  143  A    between atoms: _343  and  _344
REMARK  144  A    between atoms: _347  and  _349
REMARK  145  A    between atoms: _349  and  _350
REMARK  146  A    between atoms: _349  and  _352
REMARK  147  A    between atoms: _352  and  _353
REMARK  148  A    between atoms: _356  and  _358
REMARK  149  A    between atoms: _358  and  _359
REMARK  150  A    between atoms: _358  and  _361
REMARK  151  A    between atoms: _361  and  _362
REMARK  152  A    between atoms: _365  and  _367
REMARK  153  A    between atoms: _367  and  _368
REMARK  154  A    between atoms: _367  and  _370
REMARK  155  A    between atoms: _370  and  _371
REMARK  156  A    between atoms: _374  and  _376
REMARK  157  A    between atoms: _376  and  _377
REMARK  158  A    between atoms: _376  and  _379
REMARK  159  A    between atoms: _379  and  _380
REMARK  160  A    between atoms: _383  and  _385
REMARK  161  A    between atoms: _385  and  _386
REMARK  162  A    between atoms: _385  and  _388
REMARK  163  A    between atoms: _388  and  _389
REMARK  164  A    between atoms: _389  and  _390
REMARK  165  A    between atoms: _390  and  _391
REMARK  166  A    between atoms: _391  and  _392
REMARK  167  A    between atoms: _396  and  _398
REMARK  168  A    between atoms: _398  and  _399
REMARK  169  A    between atoms: _398  and  _401
REMARK  170  A    between atoms: _401  and  _402
REMARK  171  A    between atoms: _402  and  _403
REMARK  172  A    between atoms: _405  and  _407
REMARK  173  A    between atoms: _407  and  _408
REMARK  174  A    between atoms: _407  and  _410
REMARK  175  A    between atoms: _413  and  _415
REMARK  176  A    between atoms: _415  and  _416
REMARK  177  A    between atoms: _418  and  _420
REMARK  178  A    between atoms: _420  and  _421
REMARK  179  A    between atoms: _423  and  _425
REMARK  180  A    between atoms: _425  and  _426
REMARK  181  A    between atoms: _425  and  _428
REMARK  182  A    between atoms: _428  and  _429
REMARK  183  A    between atoms: _432  and  _434
REMARK  184  A    between atoms: _434  and  _435
REMARK  185  A    between atoms: _437  and  _439
REMARK  186  A    between atoms: _439  and  _440
REMARK  187  A    between atoms: _442  and  _444
REMARK  188  A    between atoms: _444  and  _445
REMARK  189  A    between atoms: _444  and  _447
REMARK  190  A    between atoms: _447  and  _448
REMARK  191  A    between atoms: _454  and  _456
REMARK  192  A    between atoms: _456  and  _457
REMARK  193  A    between atoms: _456  and  _459
REMARK  194  A    between atoms: _459  and  _460
REMARK  195  A    between atoms: _463  and  _465
REMARK  196  A    between atoms: _465  and  _466
REMARK  197  A    between atoms: _465  and  _468
REMARK  198  A    between atoms: _471  and  _473
REMARK  199  A    between atoms: _473  and  _474
REMARK  200  A    between atoms: _473  and  _476
REMARK  201  A    between atoms: _476  and  _477
REMARK  202  A    between atoms: _480  and  _482
REMARK  203  A    between atoms: _482  and  _483
REMARK  204  A    between atoms: _482  and  _485
REMARK  205  A    between atoms: _485  and  _486
REMARK  206  A    between atoms: _490  and  _491
REMARK  207  A    between atoms: _496  and  _498
REMARK  208  A    between atoms: _498  and  _499
REMARK  209  A    between atoms: _498  and  _501
REMARK  210  A    between atoms: _501  and  _502
REMARK  211  A    between atoms: _505  and  _507
REMARK  212  A    between atoms: _507  and  _508
REMARK  213  A    between atoms: _507  and  _510
REMARK  214  A    between atoms: _510  and  _511
REMARK  215  A    between atoms: _516  and  _518
REMARK  216  A    between atoms: _518  and  _519
REMARK  217  A    between atoms: _518  and  _521
REMARK  218  A    between atoms: _521  and  _522
REMARK  219  A    between atoms: _525  and  _527
REMARK  220  A    between atoms: _527  and  _528
REMARK  221  A    between atoms: _527  and  _530
REMARK  222  A    between atoms: _530  and  _531
REMARK  223  A    between atoms: _534  and  _536
REMARK  224  A    between atoms: _536  and  _537
REMARK  225  A    between atoms: _539  and  _541
REMARK  226  A    between atoms: _541  and  _542
REMARK  227  A    between atoms: _541  and  _544
REMARK  228  A    between atoms: _544  and  _545
REMARK  229  A    between atoms: _545  and  _546
REMARK  230  A    between atoms: _546  and  _547
REMARK                            x       y       z     vdW  Elec       q    Type
REMARK                         _______ _______ _______ _____ _____    ______ ____
ROOT
ATOM      1  O   HOH     1      11.796  21.090   6.625  0.00  0.00    +0.000 OA
ENDROOT
TORSDOF 0
REMARK  Name = ../refined-set-2016/1tcx/1tcx_pocket.pdb
REMARK  230 active torsions:
REMARK  status: ('A' for Active; 'I' for Inactive)
REMARK    1  A    between atoms: _1  and  _3
REMARK    2  A    between atoms: _3  and  _4
REMARK    3  A    between atoms: _3  and  _6
REMARK    4  A    between atoms: _6  and  _7
REMARK    5  A    between atoms: _7  and  _8
REMARK    6  A    between atoms: _8  and  _9
REMARK    7  A    between atoms: _18  and  _20
REMARK    8  A    between atoms: _20  and  _21
REMARK    9  A    between atoms: _20  and  _23
REMARK   10  A    between atoms: _23  and  _24
REMARK   11  A    between atoms: _27  and  _29
REMARK   12  A    between atoms: _29  and  _30
REMARK   13  A    between atoms: _29  and  _32
REMARK   14  A    between atoms: _32  and  _33
REMARK   15  A    between atoms: _36  and  _38
REMARK   16  A    between atoms: _38  and  _39
REMARK   17  A    between atoms: _38  and  _41
REMARK   18  A    between atoms: _41  and  _42
REMARK   19  A    between atoms: _45  and  _47
REMARK   20  A    between atoms: _47  and  _48
REMARK   21  A    between atoms: _47  and  _50
REMARK   22  A    between atoms: _50  and  _51
REMARK   23  A    between atoms: _54  and  _56
REMARK   24  A    between atoms: _56  and  _57
REMARK   25  A    between atoms: _59  and  _61
REMARK   26  A    between atoms: _61  and  _62
REMARK   27  A    between atoms: _65  and  _67
REMARK   28  A    between atoms: _67  and  _68
REMARK   29  A    between atoms: _67  and  _70
REMARK   30  A    between atoms: _70  and  _71
REMARK   31  A    between atoms: _74  and  _76
REMARK   32  A    between atoms: _76  and  _77
REMARK   33  A    between atoms: _76  and  _79
REMARK   34  A    between atoms: _79  and  _80
REMARK   35  A    between atoms: _83  and  _85
REMARK   36  A    between atoms: _85  and  _86
REMARK   37  A    between atoms: _85  and  _88
REMARK   38  A    between atoms: _88  and  _89
REMARK   39  A    between atoms: _92  and  _94
REMARK   40  A    between atoms: _94  and  _95
REMARK   41  A    between atoms: _94  and  _97
REMARK   42  A    between atoms: _97  and  _98
REMARK   43  A    between atoms: _101  and  _103
REMARK   44  A    between atoms: _103  and  _104
REMARK   45  A    between atoms: _103  and  _106
REMARK   46  A    between atoms: _106  and  _107
REMARK   47  A    between atoms: _107  and  _108
REMARK   48  A    between atoms: _108  and  _109
REMARK   49  A    between atoms: _109  and  _110
REMARK   50  A    between atoms: _114  and  _116
REMARK   51  A    between atoms: _116  and  _117
REMARK   52  A    between atoms: _116  and  _119
REMARK   53  A    between atoms: _119  and  _120
REMARK   54  A    between atoms: _120  and  _121
REMARK   55  A    between atoms: _123  and  _125
REMARK   56  A    between atoms: _125  and  _126
REMARK   57  A    between atoms: _125  and  _128
REMARK   58  A    between atoms: _131  and  _133
REMARK   59  A    between atoms: _133  and  _134
REMARK   60  A    between atoms: _136  and  _138
REMARK   61  A    between atoms: _138  and  _139
REMARK   62  A    between atoms: _141  and  _143
REMARK   63  A    between atoms: _143  and  _144
REMARK   64  A    between atoms: _143  and  _146
REMARK   65  A    between atoms: _146  and  _147
REMARK   66  A    between atoms: _150  and  _152
REMARK   67  A    between atoms: _152  and  _153
REMARK   68  A    between atoms: _155  and  _157
REMARK   69  A    between atoms: _157  and  _158
REMARK   70  A    between atoms: _160  and  _162
REMARK   71  A    between atoms: _162  and  _163
REMARK   72  A    between atoms: _162  and  _165
REMARK   73  A    between atoms: _165  and  _166
REMARK   74  A    between atoms: _172  and  _174
REMARK   75  A    between atoms: _174  and  _175
REMARK   76  A    between atoms: _174  and  _177
REMARK   77  A    between atoms: _177  and  _178
REMARK   78  A    between atoms: _181  and  _183
REMARK   79  A    between atoms: _183  and  _184
REMARK   80  A    between atoms: _183  and  _186
REMARK   81  A    between atoms: _189  and  _191
REMARK   82  A    between atoms: _191  and  _192
REMARK   83  A    between atoms: _191  and  _194
REMARK   84  A    between atoms: _194  and  _195
REMARK   85  A    between atoms: _198  and  _200
REMARK   86  A    between atoms: _200  and  _201
REMARK   87  A    between atoms: _200  and  _203
REMARK   88  A    between atoms: _203  and  _204
REMARK   89  A    between atoms: _208  and  _209
REMARK   90  A    between atoms: _214  and  _216
REMARK   91  A    between atoms: _216  and  _217
REMARK   92  A    between atoms: _216  and  _219
REMARK   93  A    between atoms: _219  and  _220
REMARK   94  A    between atoms: _223  and  _225
REMARK   95  A    between atoms: _225  and  _226
REMARK   96  A    between atoms: _225  and  _228
REMARK   97  A    between atoms: _228  and  _229
REMARK   98  A    between atoms: _234  and  _236
REMARK   99  A    between atoms: _236  and  _237
REMARK  100  A    between atoms: _236  and  _239
REMARK  101  A    between atoms: _239  and  _240
REMARK  102  A    between atoms: _243  and  _245
REMARK  103  A    between atoms: _245  and  _246
REMARK  104  A    between atoms: _245  and  _248
REMARK  105  A    between atoms: _248  and  _249
REMARK  106  A    between atoms: _252  and  _254
REMARK  107  A    between atoms: _254  and  _255
REMARK  108  A    between atoms: _257  and  _259
REMARK  109  A    between atoms: _259  and  _260
REMARK  110  A    between atoms: _259  and  _262
REMARK  111  A    between atoms: _262  and  _263
REMARK  112  A    between atoms: _263  and  _264
REMARK  113  A    between atoms: _264  and  _265
REMARK  114  A    between atoms: _274  and  _276
REMARK  115  A    between atoms: _276  and  _277
REMARK  116  A    between atoms: _276  and  _279
REMARK  117  A    between atoms: _279  and  _280
REMARK  118  A    between atoms: _280  and  _281
REMARK  119  A    between atoms: _281  and  _282
REMARK  120  A    between atoms: _291  and  _293
REMARK  121  A    between atoms: _293  and  _294
REMARK  122  A    between atoms: _293  and  _296
REMARK  123  A    between atoms: _296  and  _297
REMARK  124  A    between atoms: _300  and  _302
REMARK  125  A    between atoms: _302  and  _303
REMARK  126  A    between atoms: _302  and  _305
REMARK  127  A    between atoms: _305  and  _306
REMARK  128  A    between atoms: _309  and  _311
REMARK  129  A    between atoms: _311  and  _312
REMARK  130  A    between atoms: _311  and  _314
REMARK  131  A    between atoms: _314  and  _315
REMARK  132  A    between atoms: _318  and  _320
REMARK  133  A    between atoms: _320  and  _321
REMARK  134  A    between atoms: _320  and  _323
REMARK  135  A    between atoms: _323  and  _324
REMARK  136  A    between atoms: _327  and  _329
REMARK  137  A    between atoms: _329  and  _330
REMARK  138  A    between atoms: _329  and  _332
REMARK  139  A    between atoms: _332  and  _333
REMARK  140  A    between atoms: _336  and  _338
REMARK  141  A    between atoms: _338  and  _339
REMARK  142  A    between atoms: _341  and  _343
REMARK  143  A    between atoms: _343  and  _344
REMARK  144  A    between atoms: _347  and  _349
REMARK  145  A    between atoms: _349  and  _350
REMARK  146  A    between atoms: _349  and  _352
REMARK  147  A    between atoms: _352  and  _353
REMARK  148  A    between atoms: _356  and  _358
REMARK  149  A    between atoms: _358  and  _359
REMARK  150  A    between atoms: _358  and  _361
REMARK  151  A    between atoms: _361  and  _362
REMARK  152  A    between atoms: _365  and  _367
REMARK  153  A    between atoms: _367  and  _368
REMARK  154  A    between atoms: _367  and  _370
REMARK  155  A    between atoms: _370  and  _371
REMARK  156  A    between atoms: _374  and  _376
REMARK  157  A    between atoms: _376  and  _377
REMARK  158  A    between atoms: _376  and  _379
REMARK  159  A    between atoms: _379  and  _380
REMARK  160  A    between atoms: _383  and  _385
REMARK  161  A    between atoms: _385  and  _386
REMARK  162  A    between atoms: _385  and  _388
REMARK  163  A    between atoms: _388  and  _389
REMARK  164  A    between atoms: _389  and  _390
REMARK  165  A    between atoms: _390  and  _391
REMARK  166  A    between atoms: _391  and  _392
REMARK  167  A    between atoms: _396  and  _398
REMARK  168  A    between atoms: _398  and  _399
REMARK  169  A    between atoms: _398  and  _401
REMARK  170  A    between atoms: _401  and  _402
REMARK  171  A    between atoms: _402  and  _403
REMARK  172  A    between atoms: _405  and  _407
REMARK  173  A    between atoms: _407  and  _408
REMARK  174  A    between atoms: _407  and  _410
REMARK  175  A    between atoms: _413  and  _415
REMARK  176  A    between atoms: _415  and  _416
REMARK  177  A    between atoms: _418  and  _420
REMARK  178  A    between atoms: _420  and  _421
REMARK  179  A    between atoms: _423  and  _425
REMARK  180  A    between atoms: _425  and  _426
REMARK  181  A    between atoms: _425  and  _428
REMARK  182  A    between atoms: _428  and  _429
REMARK  183  A    between atoms: _432  and  _434
REMARK  184  A    between atoms: _434  and  _435
REMARK  185  A    between atoms: _437  and  _439
REMARK  186  A    between atoms: _439  and  _440
REMARK  187  A    between atoms: _442  and  _444
REMARK  188  A    between atoms: _444  and  _445
REMARK  189  A    between atoms: _444  and  _447
REMARK  190  A    between atoms: _447  and  _448
REMARK  191  A    between atoms: _454  and  _456
REMARK  192  A    between atoms: _456  and  _457
REMARK  193  A    between atoms: _456  and  _459
REMARK  194  A    between atoms: _459  and  _460
REMARK  195  A    between atoms: _463  and  _465
REMARK  196  A    between atoms: _465  and  _466
REMARK  197  A    between atoms: _465  and  _468
REMARK  198  A    between atoms: _471  and  _473
REMARK  199  A    between atoms: _473  and  _474
REMARK  200  A    between atoms: _473  and  _476
REMARK  201  A    between atoms: _476  and  _477
REMARK  202  A    between atoms: _480  and  _482
REMARK  203  A    between atoms: _482  and  _483
REMARK  204  A    between atoms: _482  and  _485
REMARK  205  A    between atoms: _485  and  _486
REMARK  206  A    between atoms: _490  and  _491
REMARK  207  A    between atoms: _496  and  _498
REMARK  208  A    between atoms: _498  and  _499
REMARK  209  A    between atoms: _498  and  _501
REMARK  210  A    between atoms: _501  and  _502
REMARK  211  A    between atoms: _505  and  _507
REMARK  212  A    between atoms: _507  and  _508
REMARK  213  A    between atoms: _507  and  _510
REMARK  214  A    between atoms: _510  and  _511
REMARK  215  A    between atoms: _516  and  _518
REMARK  216  A    between atoms: _518  and  _519
REMARK  217  A    between atoms: _518  and  _521
REMARK  218  A    between atoms: _521  and  _522
REMARK  219  A    between atoms: _525  and  _527
REMARK  220  A    between atoms: _527  and  _528
REMARK  221  A    between atoms: _527  and  _530
REMARK  222  A    between atoms: _530  and  _531
REMARK  223  A    between atoms: _534  and  _536
REMARK  224  A    between atoms: _536  and  _537
REMARK  225  A    between atoms: _539  and  _541
REMARK  226  A    between atoms: _541  and  _542
REMARK  227  A    between atoms: _541  and  _544
REMARK  228  A    between atoms: _544  and  _545
REMARK  229  A    between atoms: _545  and  _546
REMARK  230  A    between atoms: _546  and  _547
REMARK                            x       y       z     vdW  Elec       q    Type
REMARK                         _______ _______ _______ _____ _____    ______ ____
ROOT
ATOM      1  O   HOH     1      11.210  31.153   1.402  0.00  0.00    +0.000 OA
ENDROOT
TORSDOF 0
REMARK  Name = ../refined-set-2016/1tcx/1tcx_pocket.pdb
REMARK  230 active torsions:
REMARK  status: ('A' for Active; 'I' for Inactive)
REMARK    1  A    between atoms: _1  and  _3
REMARK    2  A    between atoms: _3  and  _4
REMARK    3  A    between atoms: _3  and  _6
REMARK    4  A    between atoms: _6  and  _7
REMARK    5  A    between atoms: _7  and  _8
REMARK    6  A    between atoms: _8  and  _9
REMARK    7  A    between atoms: _18  and  _20
REMARK    8  A    between atoms: _20  and  _21
REMARK    9  A    between atoms: _20  and  _23
REMARK   10  A    between atoms: _23  and  _24
REMARK   11  A    between atoms: _27  and  _29
REMARK   12  A    between atoms: _29  and  _30
REMARK   13  A    between atoms: _29  and  _32
REMARK   14  A    between atoms: _32  and  _33
REMARK   15  A    between atoms: _36  and  _38
REMARK   16  A    between atoms: _38  and  _39
REMARK   17  A    between atoms: _38  and  _41
REMARK   18  A    between atoms: _41  and  _42
REMARK   19  A    between atoms: _45  and  _47
REMARK   20  A    between atoms: _47  and  _48
REMARK   21  A    between atoms: _47  and  _50
REMARK   22  A    between atoms: _50  and  _51
REMARK   23  A    between atoms: _54  and  _56
REMARK   24  A    between atoms: _56  and  _57
REMARK   25  A    between atoms: _59  and  _61
REMARK   26  A    between atoms: _61  and  _62
REMARK   27  A    between atoms: _65  and  _67
REMARK   28  A    between atoms: _67  and  _68
REMARK   29  A    between atoms: _67  and  _70
REMARK   30  A    between atoms: _70  and  _71
REMARK   31  A    between atoms: _74  and  _76
REMARK   32  A    between atoms: _76  and  _77
REMARK   33  A    between atoms: _76  and  _79
REMARK   34  A    between atoms: _79  and  _80
REMARK   35  A    between atoms: _83  and  _85
REMARK   36  A    between atoms: _85  and  _86
REMARK   37  A    between atoms: _85  and  _88
REMARK   38  A    between atoms: _88  and  _89
REMARK   39  A    between atoms: _92  and  _94
REMARK   40  A    between atoms: _94  and  _95
REMARK   41  A    between atoms: _94  and  _97
REMARK   42  A    between atoms: _97  and  _98
REMARK   43  A    between atoms: _101  and  _103
REMARK   44  A    between atoms: _103  and  _104
REMARK   45  A    between atoms: _103  and  _106
REMARK   46  A    between atoms: _106  and  _107
REMARK   47  A    between atoms: _107  and  _108
REMARK   48  A    between atoms: _108  and  _109
REMARK   49  A    between atoms: _109  and  _110
REMARK   50  A    between atoms: _114  and  _116
REMARK   51  A    between atoms: _116  and  _117
REMARK   52  A    between atoms: _116  and  _119
REMARK   53  A    between atoms: _119  and  _120
REMARK   54  A    between atoms: _120  and  _121
REMARK   55  A    between atoms: _123  and  _125
REMARK   56  A    between atoms: _125  and  _126
REMARK   57  A    between atoms: _125  and  _128
REMARK   58  A    between atoms: _131  and  _133
REMARK   59  A    between atoms: _133  and  _134
REMARK   60  A    between atoms: _136  and  _138
REMARK   61  A    between atoms: _138  and  _139
REMARK   62  A    between atoms: _141  and  _143
REMARK   63  A    between atoms: _143  and  _144
REMARK   64  A    between atoms: _143  and  _146
REMARK   65  A    between atoms: _146  and  _147
REMARK   66  A    between atoms: _150  and  _152
REMARK   67  A    between atoms: _152  and  _153
REMARK   68  A    between atoms: _155  and  _157
REMARK   69  A    between atoms: _157  and  _158
REMARK   70  A    between atoms: _160  and  _162
REMARK   71  A    between atoms: _162  and  _163
REMARK   72  A    between atoms: _162  and  _165
REMARK   73  A    between atoms: _165  and  _166
REMARK   74  A    between atoms: _172  and  _174
REMARK   75  A    between atoms: _174  and  _175
REMARK   76  A    between atoms: _174  and  _177
REMARK   77  A    between atoms: _177  and  _178
REMARK   78  A    between atoms: _181  and  _183
REMARK   79  A    between atoms: _183  and  _184
REMARK   80  A    between atoms: _183  and  _186
REMARK   81  A    between atoms: _189  and  _191
REMARK   82  A    between atoms: _191  and  _192
REMARK   83  A    between atoms: _191  and  _194
REMARK   84  A    between atoms: _194  and  _195
REMARK   85  A    between atoms: _198  and  _200
REMARK   86  A    between atoms: _200  and  _201
REMARK   87  A    between atoms: _200  and  _203
REMARK   88  A    between atoms: _203  and  _204
REMARK   89  A    between atoms: _208  and  _209
REMARK   90  A    between atoms: _214  and  _216
REMARK   91  A    between atoms: _216  and  _217
REMARK   92  A    between atoms: _216  and  _219
REMARK   93  A    between atoms: _219  and  _220
REMARK   94  A    between atoms: _223  and  _225
REMARK   95  A    between atoms: _225  and  _226
REMARK   96  A    between atoms: _225  and  _228
REMARK   97  A    between atoms: _228  and  _229
REMARK   98  A    between atoms: _234  and  _236
REMARK   99  A    between atoms: _236  and  _237
REMARK  100  A    between atoms: _236  and  _239
REMARK  101  A    between atoms: _239  and  _240
REMARK  102  A    between atoms: _243  and  _245
REMARK  103  A    between atoms: _245  and  _246
REMARK  104  A    between atoms: _245  and  _248
REMARK  105  A    between atoms: _248  and  _249
REMARK  106  A    between atoms: _252  and  _254
REMARK  107  A    between atoms: _254  and  _255
REMARK  108  A    between atoms: _257  and  _259
REMARK  109  A    between atoms: _259  and  _260
REMARK  110  A    between atoms: _259  and  _262
REMARK  111  A    between atoms: _262  and  _263
REMARK  112  A    between atoms: _263  and  _264
REMARK  113  A    between atoms: _264  and  _265
REMARK  114  A    between atoms: _274  and  _276
REMARK  115  A    between atoms: _276  and  _277
REMARK  116  A    between atoms: _276  and  _279
REMARK  117  A    between atoms: _279  and  _280
REMARK  118  A    between atoms: _280  and  _281
REMARK  119  A    between atoms: _281  and  _282
REMARK  120  A    between atoms: _291  and  _293
REMARK  121  A    between atoms: _293  and  _294
REMARK  122  A    between atoms: _293  and  _296
REMARK  123  A    between atoms: _296  and  _297
REMARK  124  A    between atoms: _300  and  _302
REMARK  125  A    between atoms: _302  and  _303
REMARK  126  A    between atoms: _302  and  _305
REMARK  127  A    between atoms: _305  and  _306
REMARK  128  A    between atoms: _309  and  _311
REMARK  129  A    between atoms: _311  and  _312
REMARK  130  A    between atoms: _311  and  _314
REMARK  131  A    between atoms: _314  and  _315
REMARK  132  A    between atoms: _318  and  _320
REMARK  133  A    between atoms: _320  and  _321
REMARK  134  A    between atoms: _320  and  _323
REMARK  135  A    between atoms: _323  and  _324
REMARK  136  A    between atoms: _327  and  _329
REMARK  137  A    between atoms: _329  and  _330
REMARK  138  A    between atoms: _329  and  _332
REMARK  139  A    between atoms: _332  and  _333
REMARK  140  A    between atoms: _336  and  _338
REMARK  141  A    between atoms: _338  and  _339
REMARK  142  A    between atoms: _341  and  _343
REMARK  143  A    between atoms: _343  and  _344
REMARK  144  A    between atoms: _347  and  _349
REMARK  145  A    between atoms: _349  and  _350
REMARK  146  A    between atoms: _349  and  _352
REMARK  147  A    between atoms: _352  and  _353
REMARK  148  A    between atoms: _356  and  _358
REMARK  149  A    between atoms: _358  and  _359
REMARK  150  A    between atoms: _358  and  _361
REMARK  151  A    between atoms: _361  and  _362
REMARK  152  A    between atoms: _365  and  _367
REMARK  153  A    between atoms: _367  and  _368
REMARK  154  A    between atoms: _367  and  _370
REMARK  155  A    between atoms: _370  and  _371
REMARK  156  A    between atoms: _374  and  _376
REMARK  157  A    between atoms: _376  and  _377
REMARK  158  A    between atoms: _376  and  _379
REMARK  159  A    between atoms: _379  and  _380
REMARK  160  A    between atoms: _383  and  _385
REMARK  161  A    between atoms: _385  and  _386
REMARK  162  A    between atoms: _385  and  _388
REMARK  163  A    between atoms: _388  and  _389
REMARK  164  A    between atoms: _389  and  _390
REMARK  165  A    between atoms: _390  and  _391
REMARK  166  A    between atoms: _391  and  _392
REMARK  167  A    between atoms: _396  and  _398
REMARK  168  A    between atoms: _398  and  _399
REMARK  169  A    between atoms: _398  and  _401
REMARK  170  A    between atoms: _401  and  _402
REMARK  171  A    between atoms: _402  and  _403
REMARK  172  A    between atoms: _405  and  _407
REMARK  173  A    between atoms: _407  and  _408
REMARK  174  A    between atoms: _407  and  _410
REMARK  175  A    between atoms: _413  and  _415
REMARK  176  A    between atoms: _415  and  _416
REMARK  177  A    between atoms: _418  and  _420
REMARK  178  A    between atoms: _420  and  _421
REMARK  179  A    between atoms: _423  and  _425
REMARK  180  A    between atoms: _425  and  _426
REMARK  181  A    between atoms: _425  and  _428
REMARK  182  A    between atoms: _428  and  _429
REMARK  183  A    between atoms: _432  and  _434
REMARK  184  A    between atoms: _434  and  _435
REMARK  185  A    between atoms: _437  and  _439
REMARK  186  A    between atoms: _439  and  _440
REMARK  187  A    between atoms: _442  and  _444
REMARK  188  A    between atoms: _444  and  _445
REMARK  189  A    between atoms: _444  and  _447
REMARK  190  A    between atoms: _447  and  _448
REMARK  191  A    between atoms: _454  and  _456
REMARK  192  A    between atoms: _456  and  _457
REMARK  193  A    between atoms: _456  and  _459
REMARK  194  A    between atoms: _459  and  _460
REMARK  195  A    between atoms: _463  and  _465
REMARK  196  A    between atoms: _465  and  _466
REMARK  197  A    between atoms: _465  and  _468
REMARK  198  A    between atoms: _471  and  _473
REMARK  199  A    between atoms: _473  and  _474
REMARK  200  A    between atoms: _473  and  _476
REMARK  201  A    between atoms: _476  and  _477
REMARK  202  A    between atoms: _480  and  _482
REMARK  203  A    between atoms: _482  and  _483
REMARK  204  A    between atoms: _482  and  _485
REMARK  205  A    between atoms: _485  and  _486
REMARK  206  A    between atoms: _490  and  _491
REMARK  207  A    between atoms: _496  and  _498
REMARK  208  A    between atoms: _498  and  _499
REMARK  209  A    between atoms: _498  and  _501
REMARK  210  A    between atoms: _501  and  _502
REMARK  211  A    between atoms: _505  and  _507
REMARK  212  A    between atoms: _507  and  _508
REMARK  213  A    between atoms: _507  and  _510
REMARK  214  A    between atoms: _510  and  _511
REMARK  215  A    between atoms: _516  and  _518
REMARK  216  A    between atoms: _518  and  _519
REMARK  217  A    between atoms: _518  and  _521
REMARK  218  A    between atoms: _521  and  _522
REMARK  219  A    between atoms: _525  and  _527
REMARK  220  A    between atoms: _527  and  _528
REMARK  221  A    between atoms: _527  and  _530
REMARK  222  A    between atoms: _530  and  _531
REMARK  223  A    between atoms: _534  and  _536
REMARK  224  A    between atoms: _536  and  _537
REMARK  225  A    between atoms: _539  and  _541
REMARK  226  A    between atoms: _541  and  _542
REMARK  227  A    between atoms: _541  and  _544
REMARK  228  A    between atoms: _544  and  _545
REMARK  229  A    between atoms: _545  and  _546
REMARK  230  A    between atoms: _546  and  _547
REMARK                            x       y       z     vdW  Elec       q    Type
REMARK                         _______ _______ _______ _____ _____    ______ ____
ROOT
ATOM      1  O   HOH     1       9.747  29.057   2.231  0.00  0.00    +0.000 OA
ENDROOT
TORSDOF 0
REMARK  Name = ../refined-set-2016/1tcx/1tcx_pocket.pdb
REMARK  230 active torsions:
REMARK  status: ('A' for Active; 'I' for Inactive)
REMARK    1  A    between atoms: _1  and  _3
REMARK    2  A    between atoms: _3  and  _4
REMARK    3  A    between atoms: _3  and  _6
REMARK    4  A    between atoms: _6  and  _7
REMARK    5  A    between atoms: _7  and  _8
REMARK    6  A    between atoms: _8  and  _9
REMARK    7  A    between atoms: _18  and  _20
REMARK    8  A    between atoms: _20  and  _21
REMARK    9  A    between atoms: _20  and  _23
REMARK   10  A    between atoms: _23  and  _24
REMARK   11  A    between atoms: _27  and  _29
REMARK   12  A    between atoms: _29  and  _30
REMARK   13  A    between atoms: _29  and  _32
REMARK   14  A    between atoms: _32  and  _33
REMARK   15  A    between atoms: _36  and  _38
REMARK   16  A    between atoms: _38  and  _39
REMARK   17  A    between atoms: _38  and  _41
REMARK   18  A    between atoms: _41  and  _42
REMARK   19  A    between atoms: _45  and  _47
REMARK   20  A    between atoms: _47  and  _48
REMARK   21  A    between atoms: _47  and  _50
REMARK   22  A    between atoms: _50  and  _51
REMARK   23  A    between atoms: _54  and  _56
REMARK   24  A    between atoms: _56  and  _57
REMARK   25  A    between atoms: _59  and  _61
REMARK   26  A    between atoms: _61  and  _62
REMARK   27  A    between atoms: _65  and  _67
REMARK   28  A    between atoms: _67  and  _68
REMARK   29  A    between atoms: _67  and  _70
REMARK   30  A    between atoms: _70  and  _71
REMARK   31  A    between atoms: _74  and  _76
REMARK   32  A    between atoms: _76  and  _77
REMARK   33  A    between atoms: _76  and  _79
REMARK   34  A    between atoms: _79  and  _80
REMARK   35  A    between atoms: _83  and  _85
REMARK   36  A    between atoms: _85  and  _86
REMARK   37  A    between atoms: _85  and  _88
REMARK   38  A    between atoms: _88  and  _89
REMARK   39  A    between atoms: _92  and  _94
REMARK   40  A    between atoms: _94  and  _95
REMARK   41  A    between atoms: _94  and  _97
REMARK   42  A    between atoms: _97  and  _98
REMARK   43  A    between atoms: _101  and  _103
REMARK   44  A    between atoms: _103  and  _104
REMARK   45  A    between atoms: _103  and  _106
REMARK   46  A    between atoms: _106  and  _107
REMARK   47  A    between atoms: _107  and  _108
REMARK   48  A    between atoms: _108  and  _109
REMARK   49  A    between atoms: _109  and  _110
REMARK   50  A    between atoms: _114  and  _116
REMARK   51  A    between atoms: _116  and  _117
REMARK   52  A    between atoms: _116  and  _119
REMARK   53  A    between atoms: _119  and  _120
REMARK   54  A    between atoms: _120  and  _121
REMARK   55  A    between atoms: _123  and  _125
REMARK   56  A    between atoms: _125  and  _126
REMARK   57  A    between atoms: _125  and  _128
REMARK   58  A    between atoms: _131  and  _133
REMARK   59  A    between atoms: _133  and  _134
REMARK   60  A    between atoms: _136  and  _138
REMARK   61  A    between atoms: _138  and  _139
REMARK   62  A    between atoms: _141  and  _143
REMARK   63  A    between atoms: _143  and  _144
REMARK   64  A    between atoms: _143  and  _146
REMARK   65  A    between atoms: _146  and  _147
REMARK   66  A    between atoms: _150  and  _152
REMARK   67  A    between atoms: _152  and  _153
REMARK   68  A    between atoms: _155  and  _157
REMARK   69  A    between atoms: _157  and  _158
REMARK   70  A    between atoms: _160  and  _162
REMARK   71  A    between atoms: _162  and  _163
REMARK   72  A    between atoms: _162  and  _165
REMARK   73  A    between atoms: _165  and  _166
REMARK   74  A    between atoms: _172  and  _174
REMARK   75  A    between atoms: _174  and  _175
REMARK   76  A    between atoms: _174  and  _177
REMARK   77  A    between atoms: _177  and  _178
REMARK   78  A    between atoms: _181  and  _183
REMARK   79  A    between atoms: _183  and  _184
REMARK   80  A    between atoms: _183  and  _186
REMARK   81  A    between atoms: _189  and  _191
REMARK   82  A    between atoms: _191  and  _192
REMARK   83  A    between atoms: _191  and  _194
REMARK   84  A    between atoms: _194  and  _195
REMARK   85  A    between atoms: _198  and  _200
REMARK   86  A    between atoms: _200  and  _201
REMARK   87  A    between atoms: _200  and  _203
REMARK   88  A    between atoms: _203  and  _204
REMARK   89  A    between atoms: _208  and  _209
REMARK   90  A    between atoms: _214  and  _216
REMARK   91  A    between atoms: _216  and  _217
REMARK   92  A    between atoms: _216  and  _219
REMARK   93  A    between atoms: _219  and  _220
REMARK   94  A    between atoms: _223  and  _225
REMARK   95  A    between atoms: _225  and  _226
REMARK   96  A    between atoms: _225  and  _228
REMARK   97  A    between atoms: _228  and  _229
REMARK   98  A    between atoms: _234  and  _236
REMARK   99  A    between atoms: _236  and  _237
REMARK  100  A    between atoms: _236  and  _239
REMARK  101  A    between atoms: _239  and  _240
REMARK  102  A    between atoms: _243  and  _245
REMARK  103  A    between atoms: _245  and  _246
REMARK  104  A    between atoms: _245  and  _248
REMARK  105  A    between atoms: _248  and  _249
REMARK  106  A    between atoms: _252  and  _254
REMARK  107  A    between atoms: _254  and  _255
REMARK  108  A    between atoms: _257  and  _259
REMARK  109  A    between atoms: _259  and  _260
REMARK  110  A    between atoms: _259  and  _262
REMARK  111  A    between atoms: _262  and  _263
REMARK  112  A    between atoms: _263  and  _264
REMARK  113  A    between atoms: _264  and  _265
REMARK  114  A    between atoms: _274  and  _276
REMARK  115  A    between atoms: _276  and  _277
REMARK  116  A    between atoms: _276  and  _279
REMARK  117  A    between atoms: _279  and  _280
REMARK  118  A    between atoms: _280  and  _281
REMARK  119  A    between atoms: _281  and  _282
REMARK  120  A    between atoms: _291  and  _293
REMARK  121  A    between atoms: _293  and  _294
REMARK  122  A    between atoms: _293  and  _296
REMARK  123  A    between atoms: _296  and  _297
REMARK  124  A    between atoms: _300  and  _302
REMARK  125  A    between atoms: _302  and  _303
REMARK  126  A    between atoms: _302  and  _305
REMARK  127  A    between atoms: _305  and  _306
REMARK  128  A    between atoms: _309  and  _311
REMARK  129  A    between atoms: _311  and  _312
REMARK  130  A    between atoms: _311  and  _314
REMARK  131  A    between atoms: _314  and  _315
REMARK  132  A    between atoms: _318  and  _320
REMARK  133  A    between atoms: _320  and  _321
REMARK  134  A    between atoms: _320  and  _323
REMARK  135  A    between atoms: _323  and  _324
REMARK  136  A    between atoms: _327  and  _329
REMARK  137  A    between atoms: _329  and  _330
REMARK  138  A    between atoms: _329  and  _332
REMARK  139  A    between atoms: _332  and  _333
REMARK  140  A    between atoms: _336  and  _338
REMARK  141  A    between atoms: _338  and  _339
REMARK  142  A    between atoms: _341  and  _343
REMARK  143  A    between atoms: _343  and  _344
REMARK  144  A    between atoms: _347  and  _349
REMARK  145  A    between atoms: _349  and  _350
REMARK  146  A    between atoms: _349  and  _352
REMARK  147  A    between atoms: _352  and  _353
REMARK  148  A    between atoms: _356  and  _358
REMARK  149  A    between atoms: _358  and  _359
REMARK  150  A    between atoms: _358  and  _361
REMARK  151  A    between atoms: _361  and  _362
REMARK  152  A    between atoms: _365  and  _367
REMARK  153  A    between atoms: _367  and  _368
REMARK  154  A    between atoms: _367  and  _370
REMARK  155  A    between atoms: _370  and  _371
REMARK  156  A    between atoms: _374  and  _376
REMARK  157  A    between atoms: _376  and  _377
REMARK  158  A    between atoms: _376  and  _379
REMARK  159  A    between atoms: _379  and  _380
REMARK  160  A    between atoms: _383  and  _385
REMARK  161  A    between atoms: _385  and  _386
REMARK  162  A    between atoms: _385  and  _388
REMARK  163  A    between atoms: _388  and  _389
REMARK  164  A    between atoms: _389  and  _390
REMARK  165  A    between atoms: _390  and  _391
REMARK  166  A    between atoms: _391  and  _392
REMARK  167  A    between atoms: _396  and  _398
REMARK  168  A    between atoms: _398  and  _399
REMARK  169  A    between atoms: _398  and  _401
REMARK  170  A    between atoms: _401  and  _402
REMARK  171  A    between atoms: _402  and  _403
REMARK  172  A    between atoms: _405  and  _407
REMARK  173  A    between atoms: _407  and  _408
REMARK  174  A    between atoms: _407  and  _410
REMARK  175  A    between atoms: _413  and  _415
REMARK  176  A    between atoms: _415  and  _416
REMARK  177  A    between atoms: _418  and  _420
REMARK  178  A    between atoms: _420  and  _421
REMARK  179  A    between atoms: _423  and  _425
REMARK  180  A    between atoms: _425  and  _426
REMARK  181  A    between atoms: _425  and  _428
REMARK  182  A    between atoms: _428  and  _429
REMARK  183  A    between atoms: _432  and  _434
REMARK  184  A    between atoms: _434  and  _435
REMARK  185  A    between atoms: _437  and  _439
REMARK  186  A    between atoms: _439  and  _440
REMARK  187  A    between atoms: _442  and  _444
REMARK  188  A    between atoms: _444  and  _445
REMARK  189  A    between atoms: _444  and  _447
REMARK  190  A    between atoms: _447  and  _448
REMARK  191  A    between atoms: _454  and  _456
REMARK  192  A    between atoms: _456  and  _457
REMARK  193  A    between atoms: _456  and  _459
REMARK  194  A    between atoms: _459  and  _460
REMARK  195  A    between atoms: _463  and  _465
REMARK  196  A    between atoms: _465  and  _466
REMARK  197  A    between atoms: _465  and  _468
REMARK  198  A    between atoms: _471  and  _473
REMARK  199  A    between atoms: _473  and  _474
REMARK  200  A    between atoms: _473  and  _476
REMARK  201  A    between atoms: _476  and  _477
REMARK  202  A    between atoms: _480  and  _482
REMARK  203  A    between atoms: _482  and  _483
REMARK  204  A    between atoms: _482  and  _485
REMARK  205  A    between atoms: _485  and  _486
REMARK  206  A    between atoms: _490  and  _491
REMARK  207  A    between atoms: _496  and  _498
REMARK  208  A    between atoms: _498  and  _499
REMARK  209  A    between atoms: _498  and  _501
REMARK  210  A    between atoms: _501  and  _502
REMARK  211  A    between atoms: _505  and  _507
REMARK  212  A    between atoms: _507  and  _508
REMARK  213  A    between atoms: _507  and  _510
REMARK  214  A    between atoms: _510  and  _511
REMARK  215  A    between atoms: _516  and  _518
REMARK  216  A    between atoms: _518  and  _519
REMARK  217  A    between atoms: _518  and  _521
REMARK  218  A    between atoms: _521  and  _522
REMARK  219  A    between atoms: _525  and  _527
REMARK  220  A    between atoms: _527  and  _528
REMARK  221  A    between atoms: _527  and  _530
REMARK  222  A    between atoms: _530  and  _531
REMARK  223  A    between atoms: _534  and  _536
REMARK  224  A    between atoms: _536  and  _537
REMARK  225  A    between atoms: _539  and  _541
REMARK  226  A    between atoms: _541  and  _542
REMARK  227  A    between atoms: _541  and  _544
REMARK  228  A    between atoms: _544  and  _545
REMARK  229  A    between atoms: _545  and  _546
REMARK  230  A    between atoms: _546  and  _547
REMARK                            x       y       z     vdW  Elec       q    Type
REMARK                         _______ _______ _______ _____ _____    ______ ____
ROOT
ATOM      1  O   HOH     1      19.348  19.871   5.479  0.00  0.00    +0.000 OA
ENDROOT
TORSDOF 0
REMARK  Name = ../refined-set-2016/1tcx/1tcx_pocket.pdb
REMARK  230 active torsions:
REMARK  status: ('A' for Active; 'I' for Inactive)
REMARK    1  A    between atoms: _1  and  _3
REMARK    2  A    between atoms: _3  and  _4
REMARK    3  A    between atoms: _3  and  _6
REMARK    4  A    between atoms: _6  and  _7
REMARK    5  A    between atoms: _7  and  _8
REMARK    6  A    between atoms: _8  and  _9
REMARK    7  A    between atoms: _18  and  _20
REMARK    8  A    between atoms: _20  and  _21
REMARK    9  A    between atoms: _20  and  _23
REMARK   10  A    between atoms: _23  and  _24
REMARK   11  A    between atoms: _27  and  _29
REMARK   12  A    between atoms: _29  and  _30
REMARK   13  A    between atoms: _29  and  _32
REMARK   14  A    between atoms: _32  and  _33
REMARK   15  A    between atoms: _36  and  _38
REMARK   16  A    between atoms: _38  and  _39
REMARK   17  A    between atoms: _38  and  _41
REMARK   18  A    between atoms: _41  and  _42
REMARK   19  A    between atoms: _45  and  _47
REMARK   20  A    between atoms: _47  and  _48
REMARK   21  A    between atoms: _47  and  _50
REMARK   22  A    between atoms: _50  and  _51
REMARK   23  A    between atoms: _54  and  _56
REMARK   24  A    between atoms: _56  and  _57
REMARK   25  A    between atoms: _59  and  _61
REMARK   26  A    between atoms: _61  and  _62
REMARK   27  A    between atoms: _65  and  _67
REMARK   28  A    between atoms: _67  and  _68
REMARK   29  A    between atoms: _67  and  _70
REMARK   30  A    between atoms: _70  and  _71
REMARK   31  A    between atoms: _74  and  _76
REMARK   32  A    between atoms: _76  and  _77
REMARK   33  A    between atoms: _76  and  _79
REMARK   34  A    between atoms: _79  and  _80
REMARK   35  A    between atoms: _83  and  _85
REMARK   36  A    between atoms: _85  and  _86
REMARK   37  A    between atoms: _85  and  _88
REMARK   38  A    between atoms: _88  and  _89
REMARK   39  A    between atoms: _92  and  _94
REMARK   40  A    between atoms: _94  and  _95
REMARK   41  A    between atoms: _94  and  _97
REMARK   42  A    between atoms: _97  and  _98
REMARK   43  A    between atoms: _101  and  _103
REMARK   44  A    between atoms: _103  and  _104
REMARK   45  A    between atoms: _103  and  _106
REMARK   46  A    between atoms: _106  and  _107
REMARK   47  A    between atoms: _107  and  _108
REMARK   48  A    between atoms: _108  and  _109
REMARK   49  A    between atoms: _109  and  _110
REMARK   50  A    between atoms: _114  and  _116
REMARK   51  A    between atoms: _116  and  _117
REMARK   52  A    between atoms: _116  and  _119
REMARK   53  A    between atoms: _119  and  _120
REMARK   54  A    between atoms: _120  and  _121
REMARK   55  A    between atoms: _123  and  _125
REMARK   56  A    between atoms: _125  and  _126
REMARK   57  A    between atoms: _125  and  _128
REMARK   58  A    between atoms: _131  and  _133
REMARK   59  A    between atoms: _133  and  _134
REMARK   60  A    between atoms: _136  and  _138
REMARK   61  A    between atoms: _138  and  _139
REMARK   62  A    between atoms: _141  and  _143
REMARK   63  A    between atoms: _143  and  _144
REMARK   64  A    between atoms: _143  and  _146
REMARK   65  A    between atoms: _146  and  _147
REMARK   66  A    between atoms: _150  and  _152
REMARK   67  A    between atoms: _152  and  _153
REMARK   68  A    between atoms: _155  and  _157
REMARK   69  A    between atoms: _157  and  _158
REMARK   70  A    between atoms: _160  and  _162
REMARK   71  A    between atoms: _162  and  _163
REMARK   72  A    between atoms: _162  and  _165
REMARK   73  A    between atoms: _165  and  _166
REMARK   74  A    between atoms: _172  and  _174
REMARK   75  A    between atoms: _174  and  _175
REMARK   76  A    between atoms: _174  and  _177
REMARK   77  A    between atoms: _177  and  _178
REMARK   78  A    between atoms: _181  and  _183
REMARK   79  A    between atoms: _183  and  _184
REMARK   80  A    between atoms: _183  and  _186
REMARK   81  A    between atoms: _189  and  _191
REMARK   82  A    between atoms: _191  and  _192
REMARK   83  A    between atoms: _191  and  _194
REMARK   84  A    between atoms: _194  and  _195
REMARK   85  A    between atoms: _198  and  _200
REMARK   86  A    between atoms: _200  and  _201
REMARK   87  A    between atoms: _200  and  _203
REMARK   88  A    between atoms: _203  and  _204
REMARK   89  A    between atoms: _208  and  _209
REMARK   90  A    between atoms: _214  and  _216
REMARK   91  A    between atoms: _216  and  _217
REMARK   92  A    between atoms: _216  and  _219
REMARK   93  A    between atoms: _219  and  _220
REMARK   94  A    between atoms: _223  and  _225
REMARK   95  A    between atoms: _225  and  _226
REMARK   96  A    between atoms: _225  and  _228
REMARK   97  A    between atoms: _228  and  _229
REMARK   98  A    between atoms: _234  and  _236
REMARK   99  A    between atoms: _236  and  _237
REMARK  100  A    between atoms: _236  and  _239
REMARK  101  A    between atoms: _239  and  _240
REMARK  102  A    between atoms: _243  and  _245
REMARK  103  A    between atoms: _245  and  _246
REMARK  104  A    between atoms: _245  and  _248
REMARK  105  A    between atoms: _248  and  _249
REMARK  106  A    between atoms: _252  and  _254
REMARK  107  A    between atoms: _254  and  _255
REMARK  108  A    between atoms: _257  and  _259
REMARK  109  A    between atoms: _259  and  _260
REMARK  110  A    between atoms: _259  and  _262
REMARK  111  A    between atoms: _262  and  _263
REMARK  112  A    between atoms: _263  and  _264
REMARK  113  A    between atoms: _264  and  _265
REMARK  114  A    between atoms: _274  and  _276
REMARK  115  A    between atoms: _276  and  _277
REMARK  116  A    between atoms: _276  and  _279
REMARK  117  A    between atoms: _279  and  _280
REMARK  118  A    between atoms: _280  and  _281
REMARK  119  A    between atoms: _281  and  _282
REMARK  120  A    between atoms: _291  and  _293
REMARK  121  A    between atoms: _293  and  _294
REMARK  122  A    between atoms: _293  and  _296
REMARK  123  A    between atoms: _296  and  _297
REMARK  124  A    between atoms: _300  and  _302
REMARK  125  A    between atoms: _302  and  _303
REMARK  126  A    between atoms: _302  and  _305
REMARK  127  A    between atoms: _305  and  _306
REMARK  128  A    between atoms: _309  and  _311
REMARK  129  A    between atoms: _311  and  _312
REMARK  130  A    between atoms: _311  and  _314
REMARK  131  A    between atoms: _314  and  _315
REMARK  132  A    between atoms: _318  and  _320
REMARK  133  A    between atoms: _320  and  _321
REMARK  134  A    between atoms: _320  and  _323
REMARK  135  A    between atoms: _323  and  _324
REMARK  136  A    between atoms: _327  and  _329
REMARK  137  A    between atoms: _329  and  _330
REMARK  138  A    between atoms: _329  and  _332
REMARK  139  A    between atoms: _332  and  _333
REMARK  140  A    between atoms: _336  and  _338
REMARK  141  A    between atoms: _338  and  _339
REMARK  142  A    between atoms: _341  and  _343
REMARK  143  A    between atoms: _343  and  _344
REMARK  144  A    between atoms: _347  and  _349
REMARK  145  A    between atoms: _349  and  _350
REMARK  146  A    between atoms: _349  and  _352
REMARK  147  A    between atoms: _352  and  _353
REMARK  148  A    between atoms: _356  and  _358
REMARK  149  A    between atoms: _358  and  _359
REMARK  150  A    between atoms: _358  and  _361
REMARK  151  A    between atoms: _361  and  _362
REMARK  152  A    between atoms: _365  and  _367
REMARK  153  A    between atoms: _367  and  _368
REMARK  154  A    between atoms: _367  and  _370
REMARK  155  A    between atoms: _370  and  _371
REMARK  156  A    between atoms: _374  and  _376
REMARK  157  A    between atoms: _376  and  _377
REMARK  158  A    between atoms: _376  and  _379
REMARK  159  A    between atoms: _379  and  _380
REMARK  160  A    between atoms: _383  and  _385
REMARK  161  A    between atoms: _385  and  _386
REMARK  162  A    between atoms: _385  and  _388
REMARK  163  A    between atoms: _388  and  _389
REMARK  164  A    between atoms: _389  and  _390
REMARK  165  A    between atoms: _390  and  _391
REMARK  166  A    between atoms: _391  and  _392
REMARK  167  A    between atoms: _396  and  _398
REMARK  168  A    between atoms: _398  and  _399
REMARK  169  A    between atoms: _398  and  _401
REMARK  170  A    between atoms: _401  and  _402
REMARK  171  A    between atoms: _402  and  _403
REMARK  172  A    between atoms: _405  and  _407
REMARK  173  A    between atoms: _407  and  _408
REMARK  174  A    between atoms: _407  and  _410
REMARK  175  A    between atoms: _413  and  _415
REMARK  176  A    between atoms: _415  and  _416
REMARK  177  A    between atoms: _418  and  _420
REMARK  178  A    between atoms: _420  and  _421
REMARK  179  A    between atoms: _423  and  _425
REMARK  180  A    between atoms: _425  and  _426
REMARK  181  A    between atoms: _425  and  _428
REMARK  182  A    between atoms: _428  and  _429
REMARK  183  A    between atoms: _432  and  _434
REMARK  184  A    between atoms: _434  and  _435
REMARK  185  A    between atoms: _437  and  _439
REMARK  186  A    between atoms: _439  and  _440
REMARK  187  A    between atoms: _442  and  _444
REMARK  188  A    between atoms: _444  and  _445
REMARK  189  A    between atoms: _444  and  _447
REMARK  190  A    between atoms: _447  and  _448
REMARK  191  A    between atoms: _454  and  _456
REMARK  192  A    between atoms: _456  and  _457
REMARK  193  A    between atoms: _456  and  _459
REMARK  194  A    between atoms: _459  and  _460
REMARK  195  A    between atoms: _463  and  _465
REMARK  196  A    between atoms: _465  and  _466
REMARK  197  A    between atoms: _465  and  _468
REMARK  198  A    between atoms: _471  and  _473
REMARK  199  A    between atoms: _473  and  _474
REMARK  200  A    between atoms: _473  and  _476
REMARK  201  A    between atoms: _476  and  _477
REMARK  202  A    between atoms: _480  and  _482
REMARK  203  A    between atoms: _482  and  _483
REMARK  204  A    between atoms: _482  and  _485
REMARK  205  A    between atoms: _485  and  _486
REMARK  206  A    between atoms: _490  and  _491
REMARK  207  A    between atoms: _496  and  _498
REMARK  208  A    between atoms: _498  and  _499
REMARK  209  A    between atoms: _498  and  _501
REMARK  210  A    between atoms: _501  and  _502
REMARK  211  A    between atoms: _505  and  _507
REMARK  212  A    between atoms: _507  and  _508
REMARK  213  A    between atoms: _507  and  _510
REMARK  214  A    between atoms: _510  and  _511
REMARK  215  A    between atoms: _516  and  _518
REMARK  216  A    between atoms: _518  and  _519
REMARK  217  A    between atoms: _518  and  _521
REMARK  218  A    between atoms: _521  and  _522
REMARK  219  A    between atoms: _525  and  _527
REMARK  220  A    between atoms: _527  and  _528
REMARK  221  A    between atoms: _527  and  _530
REMARK  222  A    between atoms: _530  and  _531
REMARK  223  A    between atoms: _534  and  _536
REMARK  224  A    between atoms: _536  and  _537
REMARK  225  A    between atoms: _539  and  _541
REMARK  226  A    between atoms: _541  and  _542
REMARK  227  A    between atoms: _541  and  _544
REMARK  228  A    between atoms: _544  and  _545
REMARK  229  A    between atoms: _545  and  _546
REMARK  230  A    between atoms: _546  and  _547
REMARK                            x       y       z     vdW  Elec       q    Type
REMARK                         _______ _______ _______ _____ _____    ______ ____
ROOT
ATOM      1  O   HOH     1      22.297  24.098   4.822  0.00  0.00    +0.000 OA
ENDROOT
TORSDOF 0
REMARK  Name = ../refined-set-2016/1tcx/1tcx_pocket.pdb
REMARK  230 active torsions:
REMARK  status: ('A' for Active; 'I' for Inactive)
REMARK    1  A    between atoms: _1  and  _3
REMARK    2  A    between atoms: _3  and  _4
REMARK    3  A    between atoms: _3  and  _6
REMARK    4  A    between atoms: _6  and  _7
REMARK    5  A    between atoms: _7  and  _8
REMARK    6  A    between atoms: _8  and  _9
REMARK    7  A    between atoms: _18  and  _20
REMARK    8  A    between atoms: _20  and  _21
REMARK    9  A    between atoms: _20  and  _23
REMARK   10  A    between atoms: _23  and  _24
REMARK   11  A    between atoms: _27  and  _29
REMARK   12  A    between atoms: _29  and  _30
REMARK   13  A    between atoms: _29  and  _32
REMARK   14  A    between atoms: _32  and  _33
REMARK   15  A    between atoms: _36  and  _38
REMARK   16  A    between atoms: _38  and  _39
REMARK   17  A    between atoms: _38  and  _41
REMARK   18  A    between atoms: _41  and  _42
REMARK   19  A    between atoms: _45  and  _47
REMARK   20  A    between atoms: _47  and  _48
REMARK   21  A    between atoms: _47  and  _50
REMARK   22  A    between atoms: _50  and  _51
REMARK   23  A    between atoms: _54  and  _56
REMARK   24  A    between atoms: _56  and  _57
REMARK   25  A    between atoms: _59  and  _61
REMARK   26  A    between atoms: _61  and  _62
REMARK   27  A    between atoms: _65  and  _67
REMARK   28  A    between atoms: _67  and  _68
REMARK   29  A    between atoms: _67  and  _70
REMARK   30  A    between atoms: _70  and  _71
REMARK   31  A    between atoms: _74  and  _76
REMARK   32  A    between atoms: _76  and  _77
REMARK   33  A    between atoms: _76  and  _79
REMARK   34  A    between atoms: _79  and  _80
REMARK   35  A    between atoms: _83  and  _85
REMARK   36  A    between atoms: _85  and  _86
REMARK   37  A    between atoms: _85  and  _88
REMARK   38  A    between atoms: _88  and  _89
REMARK   39  A    between atoms: _92  and  _94
REMARK   40  A    between atoms: _94  and  _95
REMARK   41  A    between atoms: _94  and  _97
REMARK   42  A    between atoms: _97  and  _98
REMARK   43  A    between atoms: _101  and  _103
REMARK   44  A    between atoms: _103  and  _104
REMARK   45  A    between atoms: _103  and  _106
REMARK   46  A    between atoms: _106  and  _107
REMARK   47  A    between atoms: _107  and  _108
REMARK   48  A    between atoms: _108  and  _109
REMARK   49  A    between atoms: _109  and  _110
REMARK   50  A    between atoms: _114  and  _116
REMARK   51  A    between atoms: _116  and  _117
REMARK   52  A    between atoms: _116  and  _119
REMARK   53  A    between atoms: _119  and  _120
REMARK   54  A    between atoms: _120  and  _121
REMARK   55  A    between atoms: _123  and  _125
REMARK   56  A    between atoms: _125  and  _126
REMARK   57  A    between atoms: _125  and  _128
REMARK   58  A    between atoms: _131  and  _133
REMARK   59  A    between atoms: _133  and  _134
REMARK   60  A    between atoms: _136  and  _138
REMARK   61  A    between atoms: _138  and  _139
REMARK   62  A    between atoms: _141  and  _143
REMARK   63  A    between atoms: _143  and  _144
REMARK   64  A    between atoms: _143  and  _146
REMARK   65  A    between atoms: _146  and  _147
REMARK   66  A    between atoms: _150  and  _152
REMARK   67  A    between atoms: _152  and  _153
REMARK   68  A    between atoms: _155  and  _157
REMARK   69  A    between atoms: _157  and  _158
REMARK   70  A    between atoms: _160  and  _162
REMARK   71  A    between atoms: _162  and  _163
REMARK   72  A    between atoms: _162  and  _165
REMARK   73  A    between atoms: _165  and  _166
REMARK   74  A    between atoms: _172  and  _174
REMARK   75  A    between atoms: _174  and  _175
REMARK   76  A    between atoms: _174  and  _177
REMARK   77  A    between atoms: _177  and  _178
REMARK   78  A    between atoms: _181  and  _183
REMARK   79  A    between atoms: _183  and  _184
REMARK   80  A    between atoms: _183  and  _186
REMARK   81  A    between atoms: _189  and  _191
REMARK   82  A    between atoms: _191  and  _192
REMARK   83  A    between atoms: _191  and  _194
REMARK   84  A    between atoms: _194  and  _195
REMARK   85  A    between atoms: _198  and  _200
REMARK   86  A    between atoms: _200  and  _201
REMARK   87  A    between atoms: _200  and  _203
REMARK   88  A    between atoms: _203  and  _204
REMARK   89  A    between atoms: _208  and  _209
REMARK   90  A    between atoms: _214  and  _216
REMARK   91  A    between atoms: _216  and  _217
REMARK   92  A    between atoms: _216  and  _219
REMARK   93  A    between atoms: _219  and  _220
REMARK   94  A    between atoms: _223  and  _225
REMARK   95  A    between atoms: _225  and  _226
REMARK   96  A    between atoms: _225  and  _228
REMARK   97  A    between atoms: _228  and  _229
REMARK   98  A    between atoms: _234  and  _236
REMARK   99  A    between atoms: _236  and  _237
REMARK  100  A    between atoms: _236  and  _239
REMARK  101  A    between atoms: _239  and  _240
REMARK  102  A    between atoms: _243  and  _245
REMARK  103  A    between atoms: _245  and  _246
REMARK  104  A    between atoms: _245  and  _248
REMARK  105  A    between atoms: _248  and  _249
REMARK  106  A    between atoms: _252  and  _254
REMARK  107  A    between atoms: _254  and  _255
REMARK  108  A    between atoms: _257  and  _259
REMARK  109  A    between atoms: _259  and  _260
REMARK  110  A    between atoms: _259  and  _262
REMARK  111  A    between atoms: _262  and  _263
REMARK  112  A    between atoms: _263  and  _264
REMARK  113  A    between atoms: _264  and  _265
REMARK  114  A    between atoms: _274  and  _276
REMARK  115  A    between atoms: _276  and  _277
REMARK  116  A    between atoms: _276  and  _279
REMARK  117  A    between atoms: _279  and  _280
REMARK  118  A    between atoms: _280  and  _281
REMARK  119  A    between atoms: _281  and  _282
REMARK  120  A    between atoms: _291  and  _293
REMARK  121  A    between atoms: _293  and  _294
REMARK  122  A    between atoms: _293  and  _296
REMARK  123  A    between atoms: _296  and  _297
REMARK  124  A    between atoms: _300  and  _302
REMARK  125  A    between atoms: _302  and  _303
REMARK  126  A    between atoms: _302  and  _305
REMARK  127  A    between atoms: _305  and  _306
REMARK  128  A    between atoms: _309  and  _311
REMARK  129  A    between atoms: _311  and  _312
REMARK  130  A    between atoms: _311  and  _314
REMARK  131  A    between atoms: _314  and  _315
REMARK  132  A    between atoms: _318  and  _320
REMARK  133  A    between atoms: _320  and  _321
REMARK  134  A    between atoms: _320  and  _323
REMARK  135  A    between atoms: _323  and  _324
REMARK  136  A    between atoms: _327  and  _329
REMARK  137  A    between atoms: _329  and  _330
REMARK  138  A    between atoms: _329  and  _332
REMARK  139  A    between atoms: _332  and  _333
REMARK  140  A    between atoms: _336  and  _338
REMARK  141  A    between atoms: _338  and  _339
REMARK  142  A    between atoms: _341  and  _343
REMARK  143  A    between atoms: _343  and  _344
REMARK  144  A    between atoms: _347  and  _349
REMARK  145  A    between atoms: _349  and  _350
REMARK  146  A    between atoms: _349  and  _352
REMARK  147  A    between atoms: _352  and  _353
REMARK  148  A    between atoms: _356  and  _358
REMARK  149  A    between atoms: _358  and  _359
REMARK  150  A    between atoms: _358  and  _361
REMARK  151  A    between atoms: _361  and  _362
REMARK  152  A    between atoms: _365  and  _367
REMARK  153  A    between atoms: _367  and  _368
REMARK  154  A    between atoms: _367  and  _370
REMARK  155  A    between atoms: _370  and  _371
REMARK  156  A    between atoms: _374  and  _376
REMARK  157  A    between atoms: _376  and  _377
REMARK  158  A    between atoms: _376  and  _379
REMARK  159  A    between atoms: _379  and  _380
REMARK  160  A    between atoms: _383  and  _385
REMARK  161  A    between atoms: _385  and  _386
REMARK  162  A    between atoms: _385  and  _388
REMARK  163  A    between atoms: _388  and  _389
REMARK  164  A    between atoms: _389  and  _390
REMARK  165  A    between atoms: _390  and  _391
REMARK  166  A    between atoms: _391  and  _392
REMARK  167  A    between atoms: _396  and  _398
REMARK  168  A    between atoms: _398  and  _399
REMARK  169  A    between atoms: _398  and  _401
REMARK  170  A    between atoms: _401  and  _402
REMARK  171  A    between atoms: _402  and  _403
REMARK  172  A    between atoms: _405  and  _407
REMARK  173  A    between atoms: _407  and  _408
REMARK  174  A    between atoms: _407  and  _410
REMARK  175  A    between atoms: _413  and  _415
REMARK  176  A    between atoms: _415  and  _416
REMARK  177  A    between atoms: _418  and  _420
REMARK  178  A    between atoms: _420  and  _421
REMARK  179  A    between atoms: _423  and  _425
REMARK  180  A    between atoms: _425  and  _426
REMARK  181  A    between atoms: _425  and  _428
REMARK  182  A    between atoms: _428  and  _429
REMARK  183  A    between atoms: _432  and  _434
REMARK  184  A    between atoms: _434  and  _435
REMARK  185  A    between atoms: _437  and  _439
REMARK  186  A    between atoms: _439  and  _440
REMARK  187  A    between atoms: _442  and  _444
REMARK  188  A    between atoms: _444  and  _445
REMARK  189  A    between atoms: _444  and  _447
REMARK  190  A    between atoms: _447  and  _448
REMARK  191  A    between atoms: _454  and  _456
REMARK  192  A    between atoms: _456  and  _457
REMARK  193  A    between atoms: _456  and  _459
REMARK  194  A    between atoms: _459  and  _460
REMARK  195  A    between atoms: _463  and  _465
REMARK  196  A    between atoms: _465  and  _466
REMARK  197  A    between atoms: _465  and  _468
REMARK  198  A    between atoms: _471  and  _473
REMARK  199  A    between atoms: _473  and  _474
REMARK  200  A    between atoms: _473  and  _476
REMARK  201  A    between atoms: _476  and  _477
REMARK  202  A    between atoms: _480  and  _482
REMARK  203  A    between atoms: _482  and  _483
REMARK  204  A    between atoms: _482  and  _485
REMARK  205  A    between atoms: _485  and  _486
REMARK  206  A    between atoms: _490  and  _491
REMARK  207  A    between atoms: _496  and  _498
REMARK  208  A    between atoms: _498  and  _499
REMARK  209  A    between atoms: _498  and  _501
REMARK  210  A    between atoms: _501  and  _502
REMARK  211  A    between atoms: _505  and  _507
REMARK  212  A    between atoms: _507  and  _508
REMARK  213  A    between atoms: _507  and  _510
REMARK  214  A    between atoms: _510  and  _511
REMARK  215  A    between atoms: _516  and  _518
REMARK  216  A    between atoms: _518  and  _519
REMARK  217  A    between atoms: _518  and  _521
REMARK  218  A    between atoms: _521  and  _522
REMARK  219  A    between atoms: _525  and  _527
REMARK  220  A    between atoms: _527  and  _528
REMARK  221  A    between atoms: _527  and  _530
REMARK  222  A    between atoms: _530  and  _531
REMARK  223  A    between atoms: _534  and  _536
REMARK  224  A    between atoms: _536  and  _537
REMARK  225  A    between atoms: _539  and  _541
REMARK  226  A    between atoms: _541  and  _542
REMARK  227  A    between atoms: _541  and  _544
REMARK  228  A    between atoms: _544  and  _545
REMARK  229  A    between atoms: _545  and  _546
REMARK  230  A    between atoms: _546  and  _547
REMARK                            x       y       z     vdW  Elec       q    Type
REMARK                         _______ _______ _______ _____ _____    ______ ____
ROOT
ATOM      1  O   HOH     1      20.681  16.113  -3.394  0.00  0.00    +0.000 OA
ENDROOT
TORSDOF 0
REMARK  Name = ../refined-set-2016/1tcx/1tcx_pocket.pdb
REMARK  230 active torsions:
REMARK  status: ('A' for Active; 'I' for Inactive)
REMARK    1  A    between atoms: _1  and  _3
REMARK    2  A    between atoms: _3  and  _4
REMARK    3  A    between atoms: _3  and  _6
REMARK    4  A    between atoms: _6  and  _7
REMARK    5  A    between atoms: _7  and  _8
REMARK    6  A    between atoms: _8  and  _9
REMARK    7  A    between atoms: _18  and  _20
REMARK    8  A    between atoms: _20  and  _21
REMARK    9  A    between atoms: _20  and  _23
REMARK   10  A    between atoms: _23  and  _24
REMARK   11  A    between atoms: _27  and  _29
REMARK   12  A    between atoms: _29  and  _30
REMARK   13  A    between atoms: _29  and  _32
REMARK   14  A    between atoms: _32  and  _33
REMARK   15  A    between atoms: _36  and  _38
REMARK   16  A    between atoms: _38  and  _39
REMARK   17  A    between atoms: _38  and  _41
REMARK   18  A    between atoms: _41  and  _42
REMARK   19  A    between atoms: _45  and  _47
REMARK   20  A    between atoms: _47  and  _48
REMARK   21  A    between atoms: _47  and  _50
REMARK   22  A    between atoms: _50  and  _51
REMARK   23  A    between atoms: _54  and  _56
REMARK   24  A    between atoms: _56  and  _57
REMARK   25  A    between atoms: _59  and  _61
REMARK   26  A    between atoms: _61  and  _62
REMARK   27  A    between atoms: _65  and  _67
REMARK   28  A    between atoms: _67  and  _68
REMARK   29  A    between atoms: _67  and  _70
REMARK   30  A    between atoms: _70  and  _71
REMARK   31  A    between atoms: _74  and  _76
REMARK   32  A    between atoms: _76  and  _77
REMARK   33  A    between atoms: _76  and  _79
REMARK   34  A    between atoms: _79  and  _80
REMARK   35  A    between atoms: _83  and  _85
REMARK   36  A    between atoms: _85  and  _86
REMARK   37  A    between atoms: _85  and  _88
REMARK   38  A    between atoms: _88  and  _89
REMARK   39  A    between atoms: _92  and  _94
REMARK   40  A    between atoms: _94  and  _95
REMARK   41  A    between atoms: _94  and  _97
REMARK   42  A    between atoms: _97  and  _98
REMARK   43  A    between atoms: _101  and  _103
REMARK   44  A    between atoms: _103  and  _104
REMARK   45  A    between atoms: _103  and  _106
REMARK   46  A    between atoms: _106  and  _107
REMARK   47  A    between atoms: _107  and  _108
REMARK   48  A    between atoms: _108  and  _109
REMARK   49  A    between atoms: _109  and  _110
REMARK   50  A    between atoms: _114  and  _116
REMARK   51  A    between atoms: _116  and  _117
REMARK   52  A    between atoms: _116  and  _119
REMARK   53  A    between atoms: _119  and  _120
REMARK   54  A    between atoms: _120  and  _121
REMARK   55  A    between atoms: _123  and  _125
REMARK   56  A    between atoms: _125  and  _126
REMARK   57  A    between atoms: _125  and  _128
REMARK   58  A    between atoms: _131  and  _133
REMARK   59  A    between atoms: _133  and  _134
REMARK   60  A    between atoms: _136  and  _138
REMARK   61  A    between atoms: _138  and  _139
REMARK   62  A    between atoms: _141  and  _143
REMARK   63  A    between atoms: _143  and  _144
REMARK   64  A    between atoms: _143  and  _146
REMARK   65  A    between atoms: _146  and  _147
REMARK   66  A    between atoms: _150  and  _152
REMARK   67  A    between atoms: _152  and  _153
REMARK   68  A    between atoms: _155  and  _157
REMARK   69  A    between atoms: _157  and  _158
REMARK   70  A    between atoms: _160  and  _162
REMARK   71  A    between atoms: _162  and  _163
REMARK   72  A    between atoms: _162  and  _165
REMARK   73  A    between atoms: _165  and  _166
REMARK   74  A    between atoms: _172  and  _174
REMARK   75  A    between atoms: _174  and  _175
REMARK   76  A    between atoms: _174  and  _177
REMARK   77  A    between atoms: _177  and  _178
REMARK   78  A    between atoms: _181  and  _183
REMARK   79  A    between atoms: _183  and  _184
REMARK   80  A    between atoms: _183  and  _186
REMARK   81  A    between atoms: _189  and  _191
REMARK   82  A    between atoms: _191  and  _192
REMARK   83  A    between atoms: _191  and  _194
REMARK   84  A    between atoms: _194  and  _195
REMARK   85  A    between atoms: _198  and  _200
REMARK   86  A    between atoms: _200  and  _201
REMARK   87  A    between atoms: _200  and  _203
REMARK   88  A    between atoms: _203  and  _204
REMARK   89  A    between atoms: _208  and  _209
REMARK   90  A    between atoms: _214  and  _216
REMARK   91  A    between atoms: _216  and  _217
REMARK   92  A    between atoms: _216  and  _219
REMARK   93  A    between atoms: _219  and  _220
REMARK   94  A    between atoms: _223  and  _225
REMARK   95  A    between atoms: _225  and  _226
REMARK   96  A    between atoms: _225  and  _228
REMARK   97  A    between atoms: _228  and  _229
REMARK   98  A    between atoms: _234  and  _236
REMARK   99  A    between atoms: _236  and  _237
REMARK  100  A    between atoms: _236  and  _239
REMARK  101  A    between atoms: _239  and  _240
REMARK  102  A    between atoms: _243  and  _245
REMARK  103  A    between atoms: _245  and  _246
REMARK  104  A    between atoms: _245  and  _248
REMARK  105  A    between atoms: _248  and  _249
REMARK  106  A    between atoms: _252  and  _254
REMARK  107  A    between atoms: _254  and  _255
REMARK  108  A    between atoms: _257  and  _259
REMARK  109  A    between atoms: _259  and  _260
REMARK  110  A    between atoms: _259  and  _262
REMARK  111  A    between atoms: _262  and  _263
REMARK  112  A    between atoms: _263  and  _264
REMARK  113  A    between atoms: _264  and  _265
REMARK  114  A    between atoms: _274  and  _276
REMARK  115  A    between atoms: _276  and  _277
REMARK  116  A    between atoms: _276  and  _279
REMARK  117  A    between atoms: _279  and  _280
REMARK  118  A    between atoms: _280  and  _281
REMARK  119  A    between atoms: _281  and  _282
REMARK  120  A    between atoms: _291  and  _293
REMARK  121  A    between atoms: _293  and  _294
REMARK  122  A    between atoms: _293  and  _296
REMARK  123  A    between atoms: _296  and  _297
REMARK  124  A    between atoms: _300  and  _302
REMARK  125  A    between atoms: _302  and  _303
REMARK  126  A    between atoms: _302  and  _305
REMARK  127  A    between atoms: _305  and  _306
REMARK  128  A    between atoms: _309  and  _311
REMARK  129  A    between atoms: _311  and  _312
REMARK  130  A    between atoms: _311  and  _314
REMARK  131  A    between atoms: _314  and  _315
REMARK  132  A    between atoms: _318  and  _320
REMARK  133  A    between atoms: _320  and  _321
REMARK  134  A    between atoms: _320  and  _323
REMARK  135  A    between atoms: _323  and  _324
REMARK  136  A    between atoms: _327  and  _329
REMARK  137  A    between atoms: _329  and  _330
REMARK  138  A    between atoms: _329  and  _332
REMARK  139  A    between atoms: _332  and  _333
REMARK  140  A    between atoms: _336  and  _338
REMARK  141  A    between atoms: _338  and  _339
REMARK  142  A    between atoms: _341  and  _343
REMARK  143  A    between atoms: _343  and  _344
REMARK  144  A    between atoms: _347  and  _349
REMARK  145  A    between atoms: _349  and  _350
REMARK  146  A    between atoms: _349  and  _352
REMARK  147  A    between atoms: _352  and  _353
REMARK  148  A    between atoms: _356  and  _358
REMARK  149  A    between atoms: _358  and  _359
REMARK  150  A    between atoms: _358  and  _361
REMARK  151  A    between atoms: _361  and  _362
REMARK  152  A    between atoms: _365  and  _367
REMARK  153  A    between atoms: _367  and  _368
REMARK  154  A    between atoms: _367  and  _370
REMARK  155  A    between atoms: _370  and  _371
REMARK  156  A    between atoms: _374  and  _376
REMARK  157  A    between atoms: _376  and  _377
REMARK  158  A    between atoms: _376  and  _379
REMARK  159  A    between atoms: _379  and  _380
REMARK  160  A    between atoms: _383  and  _385
REMARK  161  A    between atoms: _385  and  _386
REMARK  162  A    between atoms: _385  and  _388
REMARK  163  A    between atoms: _388  and  _389
REMARK  164  A    between atoms: _389  and  _390
REMARK  165  A    between atoms: _390  and  _391
REMARK  166  A    between atoms: _391  and  _392
REMARK  167  A    between atoms: _396  and  _398
REMARK  168  A    between atoms: _398  and  _399
REMARK  169  A    between atoms: _398  and  _401
REMARK  170  A    between atoms: _401  and  _402
REMARK  171  A    between atoms: _402  and  _403
REMARK  172  A    between atoms: _405  and  _407
REMARK  173  A    between atoms: _407  and  _408
REMARK  174  A    between atoms: _407  and  _410
REMARK  175  A    between atoms: _413  and  _415
REMARK  176  A    between atoms: _415  and  _416
REMARK  177  A    between atoms: _418  and  _420
REMARK  178  A    between atoms: _420  and  _421
REMARK  179  A    between atoms: _423  and  _425
REMARK  180  A    between atoms: _425  and  _426
REMARK  181  A    between atoms: _425  and  _428
REMARK  182  A    between atoms: _428  and  _429
REMARK  183  A    between atoms: _432  and  _434
REMARK  184  A    between atoms: _434  and  _435
REMARK  185  A    between atoms: _437  and  _439
REMARK  186  A    between atoms: _439  and  _440
REMARK  187  A    between atoms: _442  and  _444
REMARK  188  A    between atoms: _444  and  _445
REMARK  189  A    between atoms: _444  and  _447
REMARK  190  A    between atoms: _447  and  _448
REMARK  191  A    between atoms: _454  and  _456
REMARK  192  A    between atoms: _456  and  _457
REMARK  193  A    between atoms: _456  and  _459
REMARK  194  A    between atoms: _459  and  _460
REMARK  195  A    between atoms: _463  and  _465
REMARK  196  A    between atoms: _465  and  _466
REMARK  197  A    between atoms: _465  and  _468
REMARK  198  A    between atoms: _471  and  _473
REMARK  199  A    between atoms: _473  and  _474
REMARK  200  A    between atoms: _473  and  _476
REMARK  201  A    between atoms: _476  and  _477
REMARK  202  A    between atoms: _480  and  _482
REMARK  203  A    between atoms: _482  and  _483
REMARK  204  A    between atoms: _482  and  _485
REMARK  205  A    between atoms: _485  and  _486
REMARK  206  A    between atoms: _490  and  _491
REMARK  207  A    between atoms: _496  and  _498
REMARK  208  A    between atoms: _498  and  _499
REMARK  209  A    between atoms: _498  and  _501
REMARK  210  A    between atoms: _501  and  _502
REMARK  211  A    between atoms: _505  and  _507
REMARK  212  A    between atoms: _507  and  _508
REMARK  213  A    between atoms: _507  and  _510
REMARK  214  A    between atoms: _510  and  _511
REMARK  215  A    between atoms: _516  and  _518
REMARK  216  A    between atoms: _518  and  _519
REMARK  217  A    between atoms: _518  and  _521
REMARK  218  A    between atoms: _521  and  _522
REMARK  219  A    between atoms: _525  and  _527
REMARK  220  A    between atoms: _527  and  _528
REMARK  221  A    between atoms: _527  and  _530
REMARK  222  A    between atoms: _530  and  _531
REMARK  223  A    between atoms: _534  and  _536
REMARK  224  A    between atoms: _536  and  _537
REMARK  225  A    between atoms: _539  and  _541
REMARK  226  A    between atoms: _541  and  _542
REMARK  227  A    between atoms: _541  and  _544
REMARK  228  A    between atoms: _544  and  _545
REMARK  229  A    between atoms: _545  and  _546
REMARK  230  A    between atoms: _546  and  _547
REMARK                            x       y       z     vdW  Elec       q    Type
REMARK                         _______ _______ _______ _____ _____    ______ ____
ROOT
ATOM      1  O   HOH     1      21.000  22.176   6.418  0.00  0.00    +0.000 OA
ENDROOT
TORSDOF 0
REMARK  Name = ../refined-set-2016/1tcx/1tcx_pocket.pdb
REMARK  230 active torsions:
REMARK  status: ('A' for Active; 'I' for Inactive)
REMARK    1  A    between atoms: _1  and  _3
REMARK    2  A    between atoms: _3  and  _4
REMARK    3  A    between atoms: _3  and  _6
REMARK    4  A    between atoms: _6  and  _7
REMARK    5  A    between atoms: _7  and  _8
REMARK    6  A    between atoms: _8  and  _9
REMARK    7  A    between atoms: _18  and  _20
REMARK    8  A    between atoms: _20  and  _21
REMARK    9  A    between atoms: _20  and  _23
REMARK   10  A    between atoms: _23  and  _24
REMARK   11  A    between atoms: _27  and  _29
REMARK   12  A    between atoms: _29  and  _30
REMARK   13  A    between atoms: _29  and  _32
REMARK   14  A    between atoms: _32  and  _33
REMARK   15  A    between atoms: _36  and  _38
REMARK   16  A    between atoms: _38  and  _39
REMARK   17  A    between atoms: _38  and  _41
REMARK   18  A    between atoms: _41  and  _42
REMARK   19  A    between atoms: _45  and  _47
REMARK   20  A    between atoms: _47  and  _48
REMARK   21  A    between atoms: _47  and  _50
REMARK   22  A    between atoms: _50  and  _51
REMARK   23  A    between atoms: _54  and  _56
REMARK   24  A    between atoms: _56  and  _57
REMARK   25  A    between atoms: _59  and  _61
REMARK   26  A    between atoms: _61  and  _62
REMARK   27  A    between atoms: _65  and  _67
REMARK   28  A    between atoms: _67  and  _68
REMARK   29  A    between atoms: _67  and  _70
REMARK   30  A    between atoms: _70  and  _71
REMARK   31  A    between atoms: _74  and  _76
REMARK   32  A    between atoms: _76  and  _77
REMARK   33  A    between atoms: _76  and  _79
REMARK   34  A    between atoms: _79  and  _80
REMARK   35  A    between atoms: _83  and  _85
REMARK   36  A    between atoms: _85  and  _86
REMARK   37  A    between atoms: _85  and  _88
REMARK   38  A    between atoms: _88  and  _89
REMARK   39  A    between atoms: _92  and  _94
REMARK   40  A    between atoms: _94  and  _95
REMARK   41  A    between atoms: _94  and  _97
REMARK   42  A    between atoms: _97  and  _98
REMARK   43  A    between atoms: _101  and  _103
REMARK   44  A    between atoms: _103  and  _104
REMARK   45  A    between atoms: _103  and  _106
REMARK   46  A    between atoms: _106  and  _107
REMARK   47  A    between atoms: _107  and  _108
REMARK   48  A    between atoms: _108  and  _109
REMARK   49  A    between atoms: _109  and  _110
REMARK   50  A    between atoms: _114  and  _116
REMARK   51  A    between atoms: _116  and  _117
REMARK   52  A    between atoms: _116  and  _119
REMARK   53  A    between atoms: _119  and  _120
REMARK   54  A    between atoms: _120  and  _121
REMARK   55  A    between atoms: _123  and  _125
REMARK   56  A    between atoms: _125  and  _126
REMARK   57  A    between atoms: _125  and  _128
REMARK   58  A    between atoms: _131  and  _133
REMARK   59  A    between atoms: _133  and  _134
REMARK   60  A    between atoms: _136  and  _138
REMARK   61  A    between atoms: _138  and  _139
REMARK   62  A    between atoms: _141  and  _143
REMARK   63  A    between atoms: _143  and  _144
REMARK   64  A    between atoms: _143  and  _146
REMARK   65  A    between atoms: _146  and  _147
REMARK   66  A    between atoms: _150  and  _152
REMARK   67  A    between atoms: _152  and  _153
REMARK   68  A    between atoms: _155  and  _157
REMARK   69  A    between atoms: _157  and  _158
REMARK   70  A    between atoms: _160  and  _162
REMARK   71  A    between atoms: _162  and  _163
REMARK   72  A    between atoms: _162  and  _165
REMARK   73  A    between atoms: _165  and  _166
REMARK   74  A    between atoms: _172  and  _174
REMARK   75  A    between atoms: _174  and  _175
REMARK   76  A    between atoms: _174  and  _177
REMARK   77  A    between atoms: _177  and  _178
REMARK   78  A    between atoms: _181  and  _183
REMARK   79  A    between atoms: _183  and  _184
REMARK   80  A    between atoms: _183  and  _186
REMARK   81  A    between atoms: _189  and  _191
REMARK   82  A    between atoms: _191  and  _192
REMARK   83  A    between atoms: _191  and  _194
REMARK   84  A    between atoms: _194  and  _195
REMARK   85  A    between atoms: _198  and  _200
REMARK   86  A    between atoms: _200  and  _201
REMARK   87  A    between atoms: _200  and  _203
REMARK   88  A    between atoms: _203  and  _204
REMARK   89  A    between atoms: _208  and  _209
REMARK   90  A    between atoms: _214  and  _216
REMARK   91  A    between atoms: _216  and  _217
REMARK   92  A    between atoms: _216  and  _219
REMARK   93  A    between atoms: _219  and  _220
REMARK   94  A    between atoms: _223  and  _225
REMARK   95  A    between atoms: _225  and  _226
REMARK   96  A    between atoms: _225  and  _228
REMARK   97  A    between atoms: _228  and  _229
REMARK   98  A    between atoms: _234  and  _236
REMARK   99  A    between atoms: _236  and  _237
REMARK  100  A    between atoms: _236  and  _239
REMARK  101  A    between atoms: _239  and  _240
REMARK  102  A    between atoms: _243  and  _245
REMARK  103  A    between atoms: _245  and  _246
REMARK  104  A    between atoms: _245  and  _248
REMARK  105  A    between atoms: _248  and  _249
REMARK  106  A    between atoms: _252  and  _254
REMARK  107  A    between atoms: _254  and  _255
REMARK  108  A    between atoms: _257  and  _259
REMARK  109  A    between atoms: _259  and  _260
REMARK  110  A    between atoms: _259  and  _262
REMARK  111  A    between atoms: _262  and  _263
REMARK  112  A    between atoms: _263  and  _264
REMARK  113  A    between atoms: _264  and  _265
REMARK  114  A    between atoms: _274  and  _276
REMARK  115  A    between atoms: _276  and  _277
REMARK  116  A    between atoms: _276  and  _279
REMARK  117  A    between atoms: _279  and  _280
REMARK  118  A    between atoms: _280  and  _281
REMARK  119  A    between atoms: _281  and  _282
REMARK  120  A    between atoms: _291  and  _293
REMARK  121  A    between atoms: _293  and  _294
REMARK  122  A    between atoms: _293  and  _296
REMARK  123  A    between atoms: _296  and  _297
REMARK  124  A    between atoms: _300  and  _302
REMARK  125  A    between atoms: _302  and  _303
REMARK  126  A    between atoms: _302  and  _305
REMARK  127  A    between atoms: _305  and  _306
REMARK  128  A    between atoms: _309  and  _311
REMARK  129  A    between atoms: _311  and  _312
REMARK  130  A    between atoms: _311  and  _314
REMARK  131  A    between atoms: _314  and  _315
REMARK  132  A    between atoms: _318  and  _320
REMARK  133  A    between atoms: _320  and  _321
REMARK  134  A    between atoms: _320  and  _323
REMARK  135  A    between atoms: _323  and  _324
REMARK  136  A    between atoms: _327  and  _329
REMARK  137  A    between atoms: _329  and  _330
REMARK  138  A    between atoms: _329  and  _332
REMARK  139  A    between atoms: _332  and  _333
REMARK  140  A    between atoms: _336  and  _338
REMARK  141  A    between atoms: _338  and  _339
REMARK  142  A    between atoms: _341  and  _343
REMARK  143  A    between atoms: _343  and  _344
REMARK  144  A    between atoms: _347  and  _349
REMARK  145  A    between atoms: _349  and  _350
REMARK  146  A    between atoms: _349  and  _352
REMARK  147  A    between atoms: _352  and  _353
REMARK  148  A    between atoms: _356  and  _358
REMARK  149  A    between atoms: _358  and  _359
REMARK  150  A    between atoms: _358  and  _361
REMARK  151  A    between atoms: _361  and  _362
REMARK  152  A    between atoms: _365  and  _367
REMARK  153  A    between atoms: _367  and  _368
REMARK  154  A    between atoms: _367  and  _370
REMARK  155  A    between atoms: _370  and  _371
REMARK  156  A    between atoms: _374  and  _376
REMARK  157  A    between atoms: _376  and  _377
REMARK  158  A    between atoms: _376  and  _379
REMARK  159  A    between atoms: _379  and  _380
REMARK  160  A    between atoms: _383  and  _385
REMARK  161  A    between atoms: _385  and  _386
REMARK  162  A    between atoms: _385  and  _388
REMARK  163  A    between atoms: _388  and  _389
REMARK  164  A    between atoms: _389  and  _390
REMARK  165  A    between atoms: _390  and  _391
REMARK  166  A    between atoms: _391  and  _392
REMARK  167  A    between atoms: _396  and  _398
REMARK  168  A    between atoms: _398  and  _399
REMARK  169  A    between atoms: _398  and  _401
REMARK  170  A    between atoms: _401  and  _402
REMARK  171  A    between atoms: _402  and  _403
REMARK  172  A    between atoms: _405  and  _407
REMARK  173  A    between atoms: _407  and  _408
REMARK  174  A    between atoms: _407  and  _410
REMARK  175  A    between atoms: _413  and  _415
REMARK  176  A    between atoms: _415  and  _416
REMARK  177  A    between atoms: _418  and  _420
REMARK  178  A    between atoms: _420  and  _421
REMARK  179  A    between atoms: _423  and  _425
REMARK  180  A    between atoms: _425  and  _426
REMARK  181  A    between atoms: _425  and  _428
REMARK  182  A    between atoms: _428  and  _429
REMARK  183  A    between atoms: _432  and  _434
REMARK  184  A    between atoms: _434  and  _435
REMARK  185  A    between atoms: _437  and  _439
REMARK  186  A    between atoms: _439  and  _440
REMARK  187  A    between atoms: _442  and  _444
REMARK  188  A    between atoms: _444  and  _445
REMARK  189  A    between atoms: _444  and  _447
REMARK  190  A    between atoms: _447  and  _448
REMARK  191  A    between atoms: _454  and  _456
REMARK  192  A    between atoms: _456  and  _457
REMARK  193  A    between atoms: _456  and  _459
REMARK  194  A    between atoms: _459  and  _460
REMARK  195  A    between atoms: _463  and  _465
REMARK  196  A    between atoms: _465  and  _466
REMARK  197  A    between atoms: _465  and  _468
REMARK  198  A    between atoms: _471  and  _473
REMARK  199  A    between atoms: _473  and  _474
REMARK  200  A    between atoms: _473  and  _476
REMARK  201  A    between atoms: _476  and  _477
REMARK  202  A    between atoms: _480  and  _482
REMARK  203  A    between atoms: _482  and  _483
REMARK  204  A    between atoms: _482  and  _485
REMARK  205  A    between atoms: _485  and  _486
REMARK  206  A    between atoms: _490  and  _491
REMARK  207  A    between atoms: _496  and  _498
REMARK  208  A    between atoms: _498  and  _499
REMARK  209  A    between atoms: _498  and  _501
REMARK  210  A    between atoms: _501  and  _502
REMARK  211  A    between atoms: _505  and  _507
REMARK  212  A    between atoms: _507  and  _508
REMARK  213  A    between atoms: _507  and  _510
REMARK  214  A    between atoms: _510  and  _511
REMARK  215  A    between atoms: _516  and  _518
REMARK  216  A    between atoms: _518  and  _519
REMARK  217  A    between atoms: _518  and  _521
REMARK  218  A    between atoms: _521  and  _522
REMARK  219  A    between atoms: _525  and  _527
REMARK  220  A    between atoms: _527  and  _528
REMARK  221  A    between atoms: _527  and  _530
REMARK  222  A    between atoms: _530  and  _531
REMARK  223  A    between atoms: _534  and  _536
REMARK  224  A    between atoms: _536  and  _537
REMARK  225  A    between atoms: _539  and  _541
REMARK  226  A    between atoms: _541  and  _542
REMARK  227  A    between atoms: _541  and  _544
REMARK  228  A    between atoms: _544  and  _545
REMARK  229  A    between atoms: _545  and  _546
REMARK  230  A    between atoms: _546  and  _547
REMARK                            x       y       z     vdW  Elec       q    Type
REMARK                         _______ _______ _______ _____ _____    ______ ____
ROOT
ATOM      1  O   HOH     1      10.576  17.914  14.414  0.00  0.00    +0.000 OA
ENDROOT
TORSDOF 0
