REMARK  Name = ../refined-set-2016/4ye3/4ye3_pocket.pdb
REMARK  232 active torsions:
REMARK  status: ('A' for Active; 'I' for Inactive)
REMARK    1  A    between atoms: _1  and  _3
REMARK    2  A    between atoms: _3  and  _4
REMARK    3  A    between atoms: _3  and  _6
REMARK    4  A    between atoms: _6  and  _7
REMARK    5  A    between atoms: _7  and  _8
REMARK    6  A    between atoms: _8  and  _9
REMARK    7  A    between atoms: _18  and  _20
REMARK    8  A    between atoms: _20  and  _21
REMARK    9  A    between atoms: _20  and  _23
REMARK   10  A    between atoms: _23  and  _24
REMARK   11  A    between atoms: _30  and  _32
REMARK   12  A    between atoms: _32  and  _33
REMARK   13  A    between atoms: _32  and  _35
REMARK   14  A    between atoms: _35  and  _36
REMARK   15  A    between atoms: _39  and  _41
REMARK   16  A    between atoms: _41  and  _42
REMARK   17  A    between atoms: _41  and  _44
REMARK   18  A    between atoms: _44  and  _45
REMARK   19  A    between atoms: _48  and  _50
REMARK   20  A    between atoms: _50  and  _51
REMARK   21  A    between atoms: _50  and  _53
REMARK   22  A    between atoms: _53  and  _54
REMARK   23  A    between atoms: _57  and  _59
REMARK   24  A    between atoms: _59  and  _60
REMARK   25  A    between atoms: _59  and  _62
REMARK   26  A    between atoms: _62  and  _63
REMARK   27  A    between atoms: _66  and  _68
REMARK   28  A    between atoms: _68  and  _69
REMARK   29  A    between atoms: _71  and  _73
REMARK   30  A    between atoms: _73  and  _74
REMARK   31  A    between atoms: _77  and  _79
REMARK   32  A    between atoms: _79  and  _80
REMARK   33  A    between atoms: _79  and  _82
REMARK   34  A    between atoms: _82  and  _83
REMARK   35  A    between atoms: _86  and  _88
REMARK   36  A    between atoms: _88  and  _89
REMARK   37  A    between atoms: _88  and  _91
REMARK   38  A    between atoms: _91  and  _92
REMARK   39  A    between atoms: _97  and  _99
REMARK   40  A    between atoms: _99  and  _100
REMARK   41  A    between atoms: _99  and  _102
REMARK   42  A    between atoms: _102  and  _103
REMARK   43  A    between atoms: _106  and  _108
REMARK   44  A    between atoms: _108  and  _109
REMARK   45  A    between atoms: _108  and  _111
REMARK   46  A    between atoms: _111  and  _112
REMARK   47  A    between atoms: _115  and  _117
REMARK   48  A    between atoms: _117  and  _118
REMARK   49  A    between atoms: _117  and  _120
REMARK   50  A    between atoms: _120  and  _121
REMARK   51  A    between atoms: _121  and  _122
REMARK   52  A    between atoms: _122  and  _123
REMARK   53  A    between atoms: _123  and  _124
REMARK   54  A    between atoms: _128  and  _130
REMARK   55  A    between atoms: _130  and  _131
REMARK   56  A    between atoms: _130  and  _133
REMARK   57  A    between atoms: _133  and  _134
REMARK   58  A    between atoms: _134  and  _135
REMARK   59  A    between atoms: _137  and  _139
REMARK   60  A    between atoms: _139  and  _140
REMARK   61  A    between atoms: _139  and  _142
REMARK   62  A    between atoms: _145  and  _147
REMARK   63  A    between atoms: _147  and  _148
REMARK   64  A    between atoms: _150  and  _152
REMARK   65  A    between atoms: _152  and  _153
REMARK   66  A    between atoms: _155  and  _157
REMARK   67  A    between atoms: _157  and  _158
REMARK   68  A    between atoms: _157  and  _160
REMARK   69  A    between atoms: _160  and  _161
REMARK   70  A    between atoms: _164  and  _166
REMARK   71  A    between atoms: _166  and  _167
REMARK   72  A    between atoms: _169  and  _171
REMARK   73  A    between atoms: _171  and  _172
REMARK   74  A    between atoms: _174  and  _176
REMARK   75  A    between atoms: _176  and  _177
REMARK   76  A    between atoms: _176  and  _179
REMARK   77  A    between atoms: _179  and  _180
REMARK   78  A    between atoms: _186  and  _188
REMARK   79  A    between atoms: _188  and  _189
REMARK   80  A    between atoms: _188  and  _191
REMARK   81  A    between atoms: _191  and  _192
REMARK   82  A    between atoms: _195  and  _197
REMARK   83  A    between atoms: _197  and  _198
REMARK   84  A    between atoms: _197  and  _200
REMARK   85  A    between atoms: _200  and  _201
REMARK   86  A    between atoms: _204  and  _206
REMARK   87  A    between atoms: _206  and  _207
REMARK   88  A    between atoms: _206  and  _209
REMARK   89  A    between atoms: _209  and  _210
REMARK   90  A    between atoms: _214  and  _215
REMARK   91  A    between atoms: _220  and  _222
REMARK   92  A    between atoms: _222  and  _223
REMARK   93  A    between atoms: _222  and  _225
REMARK   94  A    between atoms: _228  and  _230
REMARK   95  A    between atoms: _230  and  _231
REMARK   96  A    between atoms: _230  and  _233
REMARK   97  A    between atoms: _233  and  _234
REMARK   98  A    between atoms: _239  and  _241
REMARK   99  A    between atoms: _241  and  _242
REMARK  100  A    between atoms: _241  and  _244
REMARK  101  A    between atoms: _247  and  _249
REMARK  102  A    between atoms: _249  and  _250
REMARK  103  A    between atoms: _249  and  _252
REMARK  104  A    between atoms: _252  and  _253
REMARK  105  A    between atoms: _256  and  _258
REMARK  106  A    between atoms: _258  and  _259
REMARK  107  A    between atoms: _261  and  _263
REMARK  108  A    between atoms: _263  and  _264
REMARK  109  A    between atoms: _263  and  _266
REMARK  110  A    between atoms: _266  and  _267
REMARK  111  A    between atoms: _267  and  _268
REMARK  112  A    between atoms: _268  and  _269
REMARK  113  A    between atoms: _278  and  _280
REMARK  114  A    between atoms: _280  and  _281
REMARK  115  A    between atoms: _280  and  _283
REMARK  116  A    between atoms: _283  and  _284
REMARK  117  A    between atoms: _287  and  _289
REMARK  118  A    between atoms: _289  and  _290
REMARK  119  A    between atoms: _289  and  _292
REMARK  120  A    between atoms: _292  and  _293
REMARK  121  A    between atoms: _293  and  _294
REMARK  122  A    between atoms: _294  and  _295
REMARK  123  A    between atoms: _304  and  _306
REMARK  124  A    between atoms: _306  and  _307
REMARK  125  A    between atoms: _306  and  _309
REMARK  126  A    between atoms: _309  and  _310
REMARK  127  A    between atoms: _316  and  _318
REMARK  128  A    between atoms: _318  and  _319
REMARK  129  A    between atoms: _318  and  _321
REMARK  130  A    between atoms: _321  and  _322
REMARK  131  A    between atoms: _325  and  _327
REMARK  132  A    between atoms: _327  and  _328
REMARK  133  A    between atoms: _327  and  _330
REMARK  134  A    between atoms: _330  and  _331
REMARK  135  A    between atoms: _334  and  _336
REMARK  136  A    between atoms: _336  and  _337
REMARK  137  A    between atoms: _336  and  _339
REMARK  138  A    between atoms: _339  and  _340
REMARK  139  A    between atoms: _343  and  _345
REMARK  140  A    between atoms: _345  and  _346
REMARK  141  A    between atoms: _345  and  _348
REMARK  142  A    between atoms: _348  and  _349
REMARK  143  A    between atoms: _352  and  _354
REMARK  144  A    between atoms: _354  and  _355
REMARK  145  A    between atoms: _357  and  _359
REMARK  146  A    between atoms: _359  and  _360
REMARK  147  A    between atoms: _363  and  _365
REMARK  148  A    between atoms: _365  and  _366
REMARK  149  A    between atoms: _365  and  _368
REMARK  150  A    between atoms: _368  and  _369
REMARK  151  A    between atoms: _372  and  _374
REMARK  152  A    between atoms: _374  and  _375
REMARK  153  A    between atoms: _374  and  _377
REMARK  154  A    between atoms: _377  and  _378
REMARK  155  A    between atoms: _383  and  _385
REMARK  156  A    between atoms: _385  and  _386
REMARK  157  A    between atoms: _385  and  _388
REMARK  158  A    between atoms: _388  and  _389
REMARK  159  A    between atoms: _392  and  _394
REMARK  160  A    between atoms: _394  and  _395
REMARK  161  A    between atoms: _394  and  _397
REMARK  162  A    between atoms: _397  and  _398
REMARK  163  A    between atoms: _401  and  _403
REMARK  164  A    between atoms: _403  and  _404
REMARK  165  A    between atoms: _403  and  _406
REMARK  166  A    between atoms: _406  and  _407
REMARK  167  A    between atoms: _407  and  _408
REMARK  168  A    between atoms: _408  and  _409
REMARK  169  A    between atoms: _409  and  _410
REMARK  170  A    between atoms: _414  and  _416
REMARK  171  A    between atoms: _416  and  _417
REMARK  172  A    between atoms: _416  and  _419
REMARK  173  A    between atoms: _419  and  _420
REMARK  174  A    between atoms: _420  and  _421
REMARK  175  A    between atoms: _423  and  _425
REMARK  176  A    between atoms: _425  and  _426
REMARK  177  A    between atoms: _425  and  _428
REMARK  178  A    between atoms: _431  and  _433
REMARK  179  A    between atoms: _433  and  _434
REMARK  180  A    between atoms: _436  and  _438
REMARK  181  A    between atoms: _438  and  _439
REMARK  182  A    between atoms: _441  and  _443
REMARK  183  A    between atoms: _443  and  _444
REMARK  184  A    between atoms: _443  and  _446
REMARK  185  A    between atoms: _446  and  _447
REMARK  186  A    between atoms: _450  and  _452
REMARK  187  A    between atoms: _452  and  _453
REMARK  188  A    between atoms: _455  and  _457
REMARK  189  A    between atoms: _457  and  _458
REMARK  190  A    between atoms: _460  and  _462
REMARK  191  A    between atoms: _462  and  _463
REMARK  192  A    between atoms: _462  and  _465
REMARK  193  A    between atoms: _465  and  _466
REMARK  194  A    between atoms: _472  and  _474
REMARK  195  A    between atoms: _474  and  _475
REMARK  196  A    between atoms: _474  and  _477
REMARK  197  A    between atoms: _477  and  _478
REMARK  198  A    between atoms: _481  and  _483
REMARK  199  A    between atoms: _483  and  _484
REMARK  200  A    between atoms: _483  and  _486
REMARK  201  A    between atoms: _486  and  _487
REMARK  202  A    between atoms: _490  and  _492
REMARK  203  A    between atoms: _492  and  _493
REMARK  204  A    between atoms: _492  and  _495
REMARK  205  A    between atoms: _495  and  _496
REMARK  206  A    between atoms: _500  and  _501
REMARK  207  A    between atoms: _506  and  _508
REMARK  208  A    between atoms: _508  and  _509
REMARK  209  A    between atoms: _508  and  _511
REMARK  210  A    between atoms: _514  and  _516
REMARK  211  A    between atoms: _516  and  _517
REMARK  212  A    between atoms: _516  and  _519
REMARK  213  A    between atoms: _519  and  _520
REMARK  214  A    between atoms: _525  and  _527
REMARK  215  A    between atoms: _527  and  _528
REMARK  216  A    between atoms: _527  and  _530
REMARK  217  A    between atoms: _533  and  _535
REMARK  218  A    between atoms: _535  and  _536
REMARK  219  A    between atoms: _535  and  _538
REMARK  220  A    between atoms: _538  and  _539
REMARK  221  A    between atoms: _542  and  _544
REMARK  222  A    between atoms: _544  and  _545
REMARK  223  A    between atoms: _547  and  _549
REMARK  224  A    between atoms: _549  and  _550
REMARK  225  A    between atoms: _549  and  _552
REMARK  226  A    between atoms: _552  and  _553
REMARK  227  A    between atoms: _553  and  _554
REMARK  228  A    between atoms: _554  and  _555
REMARK  229  A    between atoms: _564  and  _566
REMARK  230  A    between atoms: _566  and  _567
REMARK  231  A    between atoms: _566  and  _569
REMARK  232  A    between atoms: _569  and  _570
REMARK                            x       y       z     vdW  Elec       q    Type
REMARK                         _______ _______ _______ _____ _____    ______ ____
ROOT
ATOM      1  NE  ARG A   1      -1.830 -23.983   4.185  0.00  0.00    -0.265 N 
ATOM      2  HE  ARG A   1      -1.672 -24.902   4.646  0.00  0.00    +0.259 HD
ATOM      3  CZ  ARG A   1      -0.743 -23.308   3.776  0.00  0.00    +0.342 C 
ATOM      4  NH2 ARG A   1       0.467 -23.798   3.990  0.00  0.00    -0.292 N 
ATOM      5 HH21 ARG A   1       0.580 -24.710   4.477  0.00  0.00    +0.255 HD
ATOM      6 HH22 ARG A   1       1.305 -23.271   3.671  0.00  0.00    +0.255 HD
ATOM      7  NH1 ARG A   1      -0.857 -22.140   3.149  0.00  0.00    -0.292 N 
ATOM      8 HH11 ARG A   1      -1.798 -21.736   2.969  0.00  0.00    +0.255 HD
ATOM      9 HH12 ARG A   1      -0.005 -21.631   2.839  0.00  0.00    +0.255 HD
ENDROOT
BRANCH   1  10
ATOM     10  CD  ARG A   1      -3.224 -23.537   4.038  0.00  0.00    +0.174 C 
BRANCH  10  11
ATOM     11  CG  ARG A   1      -4.279 -24.600   4.505  0.00  0.00    +0.045 C 
BRANCH  11  12
ATOM     12  CB  ARG A   1      -4.556 -25.682   3.459  0.00  0.00    +0.029 C 
BRANCH  12  13
ATOM     13  CA  ARG A   1      -5.773 -26.570   3.722  0.00  0.00    +0.133 C 
BRANCH  13  14
ATOM     14  N   ARG A   1      -5.638 -27.315   4.992  0.00  0.00    -0.239 NA
ATOM     15  H   ARG A   1      -4.773 -27.216   5.561  0.00  0.00    +0.142 HD
ENDBRANCH  13  14
BRANCH  13  16
ATOM     16  C   ARG A   1      -5.889 -27.606   2.599  0.00  0.00    +0.224 C 
ATOM     17  O   ARG A   1      -5.087 -28.553   2.548  0.00  0.00    -0.287 OA
ENDBRANCH  13  16
ENDBRANCH  12  13
ENDBRANCH  11  12
ENDBRANCH  10  11
ENDBRANCH   1  10
TORSDOF 6
REMARK  Name = ../refined-set-2016/4ye3/4ye3_pocket.pdb
REMARK  232 active torsions:
REMARK  status: ('A' for Active; 'I' for Inactive)
REMARK    1  A    between atoms: _1  and  _3
REMARK    2  A    between atoms: _3  and  _4
REMARK    3  A    between atoms: _3  and  _6
REMARK    4  A    between atoms: _6  and  _7
REMARK    5  A    between atoms: _7  and  _8
REMARK    6  A    between atoms: _8  and  _9
REMARK    7  A    between atoms: _18  and  _20
REMARK    8  A    between atoms: _20  and  _21
REMARK    9  A    between atoms: _20  and  _23
REMARK   10  A    between atoms: _23  and  _24
REMARK   11  A    between atoms: _30  and  _32
REMARK   12  A    between atoms: _32  and  _33
REMARK   13  A    between atoms: _32  and  _35
REMARK   14  A    between atoms: _35  and  _36
REMARK   15  A    between atoms: _39  and  _41
REMARK   16  A    between atoms: _41  and  _42
REMARK   17  A    between atoms: _41  and  _44
REMARK   18  A    between atoms: _44  and  _45
REMARK   19  A    between atoms: _48  and  _50
REMARK   20  A    between atoms: _50  and  _51
REMARK   21  A    between atoms: _50  and  _53
REMARK   22  A    between atoms: _53  and  _54
REMARK   23  A    between atoms: _57  and  _59
REMARK   24  A    between atoms: _59  and  _60
REMARK   25  A    between atoms: _59  and  _62
REMARK   26  A    between atoms: _62  and  _63
REMARK   27  A    between atoms: _66  and  _68
REMARK   28  A    between atoms: _68  and  _69
REMARK   29  A    between atoms: _71  and  _73
REMARK   30  A    between atoms: _73  and  _74
REMARK   31  A    between atoms: _77  and  _79
REMARK   32  A    between atoms: _79  and  _80
REMARK   33  A    between atoms: _79  and  _82
REMARK   34  A    between atoms: _82  and  _83
REMARK   35  A    between atoms: _86  and  _88
REMARK   36  A    between atoms: _88  and  _89
REMARK   37  A    between atoms: _88  and  _91
REMARK   38  A    between atoms: _91  and  _92
REMARK   39  A    between atoms: _97  and  _99
REMARK   40  A    between atoms: _99  and  _100
REMARK   41  A    between atoms: _99  and  _102
REMARK   42  A    between atoms: _102  and  _103
REMARK   43  A    between atoms: _106  and  _108
REMARK   44  A    between atoms: _108  and  _109
REMARK   45  A    between atoms: _108  and  _111
REMARK   46  A    between atoms: _111  and  _112
REMARK   47  A    between atoms: _115  and  _117
REMARK   48  A    between atoms: _117  and  _118
REMARK   49  A    between atoms: _117  and  _120
REMARK   50  A    between atoms: _120  and  _121
REMARK   51  A    between atoms: _121  and  _122
REMARK   52  A    between atoms: _122  and  _123
REMARK   53  A    between atoms: _123  and  _124
REMARK   54  A    between atoms: _128  and  _130
REMARK   55  A    between atoms: _130  and  _131
REMARK   56  A    between atoms: _130  and  _133
REMARK   57  A    between atoms: _133  and  _134
REMARK   58  A    between atoms: _134  and  _135
REMARK   59  A    between atoms: _137  and  _139
REMARK   60  A    between atoms: _139  and  _140
REMARK   61  A    between atoms: _139  and  _142
REMARK   62  A    between atoms: _145  and  _147
REMARK   63  A    between atoms: _147  and  _148
REMARK   64  A    between atoms: _150  and  _152
REMARK   65  A    between atoms: _152  and  _153
REMARK   66  A    between atoms: _155  and  _157
REMARK   67  A    between atoms: _157  and  _158
REMARK   68  A    between atoms: _157  and  _160
REMARK   69  A    between atoms: _160  and  _161
REMARK   70  A    between atoms: _164  and  _166
REMARK   71  A    between atoms: _166  and  _167
REMARK   72  A    between atoms: _169  and  _171
REMARK   73  A    between atoms: _171  and  _172
REMARK   74  A    between atoms: _174  and  _176
REMARK   75  A    between atoms: _176  and  _177
REMARK   76  A    between atoms: _176  and  _179
REMARK   77  A    between atoms: _179  and  _180
REMARK   78  A    between atoms: _186  and  _188
REMARK   79  A    between atoms: _188  and  _189
REMARK   80  A    between atoms: _188  and  _191
REMARK   81  A    between atoms: _191  and  _192
REMARK   82  A    between atoms: _195  and  _197
REMARK   83  A    between atoms: _197  and  _198
REMARK   84  A    between atoms: _197  and  _200
REMARK   85  A    between atoms: _200  and  _201
REMARK   86  A    between atoms: _204  and  _206
REMARK   87  A    between atoms: _206  and  _207
REMARK   88  A    between atoms: _206  and  _209
REMARK   89  A    between atoms: _209  and  _210
REMARK   90  A    between atoms: _214  and  _215
REMARK   91  A    between atoms: _220  and  _222
REMARK   92  A    between atoms: _222  and  _223
REMARK   93  A    between atoms: _222  and  _225
REMARK   94  A    between atoms: _228  and  _230
REMARK   95  A    between atoms: _230  and  _231
REMARK   96  A    between atoms: _230  and  _233
REMARK   97  A    between atoms: _233  and  _234
REMARK   98  A    between atoms: _239  and  _241
REMARK   99  A    between atoms: _241  and  _242
REMARK  100  A    between atoms: _241  and  _244
REMARK  101  A    between atoms: _247  and  _249
REMARK  102  A    between atoms: _249  and  _250
REMARK  103  A    between atoms: _249  and  _252
REMARK  104  A    between atoms: _252  and  _253
REMARK  105  A    between atoms: _256  and  _258
REMARK  106  A    between atoms: _258  and  _259
REMARK  107  A    between atoms: _261  and  _263
REMARK  108  A    between atoms: _263  and  _264
REMARK  109  A    between atoms: _263  and  _266
REMARK  110  A    between atoms: _266  and  _267
REMARK  111  A    between atoms: _267  and  _268
REMARK  112  A    between atoms: _268  and  _269
REMARK  113  A    between atoms: _278  and  _280
REMARK  114  A    between atoms: _280  and  _281
REMARK  115  A    between atoms: _280  and  _283
REMARK  116  A    between atoms: _283  and  _284
REMARK  117  A    between atoms: _287  and  _289
REMARK  118  A    between atoms: _289  and  _290
REMARK  119  A    between atoms: _289  and  _292
REMARK  120  A    between atoms: _292  and  _293
REMARK  121  A    between atoms: _293  and  _294
REMARK  122  A    between atoms: _294  and  _295
REMARK  123  A    between atoms: _304  and  _306
REMARK  124  A    between atoms: _306  and  _307
REMARK  125  A    between atoms: _306  and  _309
REMARK  126  A    between atoms: _309  and  _310
REMARK  127  A    between atoms: _316  and  _318
REMARK  128  A    between atoms: _318  and  _319
REMARK  129  A    between atoms: _318  and  _321
REMARK  130  A    between atoms: _321  and  _322
REMARK  131  A    between atoms: _325  and  _327
REMARK  132  A    between atoms: _327  and  _328
REMARK  133  A    between atoms: _327  and  _330
REMARK  134  A    between atoms: _330  and  _331
REMARK  135  A    between atoms: _334  and  _336
REMARK  136  A    between atoms: _336  and  _337
REMARK  137  A    between atoms: _336  and  _339
REMARK  138  A    between atoms: _339  and  _340
REMARK  139  A    between atoms: _343  and  _345
REMARK  140  A    between atoms: _345  and  _346
REMARK  141  A    between atoms: _345  and  _348
REMARK  142  A    between atoms: _348  and  _349
REMARK  143  A    between atoms: _352  and  _354
REMARK  144  A    between atoms: _354  and  _355
REMARK  145  A    between atoms: _357  and  _359
REMARK  146  A    between atoms: _359  and  _360
REMARK  147  A    between atoms: _363  and  _365
REMARK  148  A    between atoms: _365  and  _366
REMARK  149  A    between atoms: _365  and  _368
REMARK  150  A    between atoms: _368  and  _369
REMARK  151  A    between atoms: _372  and  _374
REMARK  152  A    between atoms: _374  and  _375
REMARK  153  A    between atoms: _374  and  _377
REMARK  154  A    between atoms: _377  and  _378
REMARK  155  A    between atoms: _383  and  _385
REMARK  156  A    between atoms: _385  and  _386
REMARK  157  A    between atoms: _385  and  _388
REMARK  158  A    between atoms: _388  and  _389
REMARK  159  A    between atoms: _392  and  _394
REMARK  160  A    between atoms: _394  and  _395
REMARK  161  A    between atoms: _394  and  _397
REMARK  162  A    between atoms: _397  and  _398
REMARK  163  A    between atoms: _401  and  _403
REMARK  164  A    between atoms: _403  and  _404
REMARK  165  A    between atoms: _403  and  _406
REMARK  166  A    between atoms: _406  and  _407
REMARK  167  A    between atoms: _407  and  _408
REMARK  168  A    between atoms: _408  and  _409
REMARK  169  A    between atoms: _409  and  _410
REMARK  170  A    between atoms: _414  and  _416
REMARK  171  A    between atoms: _416  and  _417
REMARK  172  A    between atoms: _416  and  _419
REMARK  173  A    between atoms: _419  and  _420
REMARK  174  A    between atoms: _420  and  _421
REMARK  175  A    between atoms: _423  and  _425
REMARK  176  A    between atoms: _425  and  _426
REMARK  177  A    between atoms: _425  and  _428
REMARK  178  A    between atoms: _431  and  _433
REMARK  179  A    between atoms: _433  and  _434
REMARK  180  A    between atoms: _436  and  _438
REMARK  181  A    between atoms: _438  and  _439
REMARK  182  A    between atoms: _441  and  _443
REMARK  183  A    between atoms: _443  and  _444
REMARK  184  A    between atoms: _443  and  _446
REMARK  185  A    between atoms: _446  and  _447
REMARK  186  A    between atoms: _450  and  _452
REMARK  187  A    between atoms: _452  and  _453
REMARK  188  A    between atoms: _455  and  _457
REMARK  189  A    between atoms: _457  and  _458
REMARK  190  A    between atoms: _460  and  _462
REMARK  191  A    between atoms: _462  and  _463
REMARK  192  A    between atoms: _462  and  _465
REMARK  193  A    between atoms: _465  and  _466
REMARK  194  A    between atoms: _472  and  _474
REMARK  195  A    between atoms: _474  and  _475
REMARK  196  A    between atoms: _474  and  _477
REMARK  197  A    between atoms: _477  and  _478
REMARK  198  A    between atoms: _481  and  _483
REMARK  199  A    between atoms: _483  and  _484
REMARK  200  A    between atoms: _483  and  _486
REMARK  201  A    between atoms: _486  and  _487
REMARK  202  A    between atoms: _490  and  _492
REMARK  203  A    between atoms: _492  and  _493
REMARK  204  A    between atoms: _492  and  _495
REMARK  205  A    between atoms: _495  and  _496
REMARK  206  A    between atoms: _500  and  _501
REMARK  207  A    between atoms: _506  and  _508
REMARK  208  A    between atoms: _508  and  _509
REMARK  209  A    between atoms: _508  and  _511
REMARK  210  A    between atoms: _514  and  _516
REMARK  211  A    between atoms: _516  and  _517
REMARK  212  A    between atoms: _516  and  _519
REMARK  213  A    between atoms: _519  and  _520
REMARK  214  A    between atoms: _525  and  _527
REMARK  215  A    between atoms: _527  and  _528
REMARK  216  A    between atoms: _527  and  _530
REMARK  217  A    between atoms: _533  and  _535
REMARK  218  A    between atoms: _535  and  _536
REMARK  219  A    between atoms: _535  and  _538
REMARK  220  A    between atoms: _538  and  _539
REMARK  221  A    between atoms: _542  and  _544
REMARK  222  A    between atoms: _544  and  _545
REMARK  223  A    between atoms: _547  and  _549
REMARK  224  A    between atoms: _549  and  _550
REMARK  225  A    between atoms: _549  and  _552
REMARK  226  A    between atoms: _552  and  _553
REMARK  227  A    between atoms: _553  and  _554
REMARK  228  A    between atoms: _554  and  _555
REMARK  229  A    between atoms: _564  and  _566
REMARK  230  A    between atoms: _566  and  _567
REMARK  231  A    between atoms: _566  and  _569
REMARK  232  A    between atoms: _569  and  _570
REMARK                            x       y       z     vdW  Elec       q    Type
REMARK                         _______ _______ _______ _____ _____    ______ ____
ROOT
ATOM      1  CB  PHE A   1      -2.498 -28.636  -0.879  0.00  0.00    +0.051 C 
ENDROOT
BRANCH   1   2
ATOM      2  CG  PHE A   1      -2.077 -27.239  -0.503  0.00  0.00    -0.020 A 
ATOM      3  CD2 PHE A   1      -2.006 -26.824   0.842  0.00  0.00    -0.004 A 
ATOM      4  CE2 PHE A   1      -1.633 -25.520   1.141  0.00  0.00    -0.000 A 
ATOM      5  CZ  PHE A   1      -1.311 -24.623   0.132  0.00  0.00    -0.000 A 
ATOM      6  CE1 PHE A   1      -1.399 -25.009  -1.230  0.00  0.00    -0.000 A 
ATOM      7  CD1 PHE A   1      -1.780 -26.309  -1.533  0.00  0.00    -0.004 A 
ENDBRANCH   1   2
BRANCH   1   8
ATOM      8  CA  PHE A   1      -3.910 -28.688  -1.409  0.00  0.00    +0.137 C 
BRANCH   8   9
ATOM      9  N   PHE A   1      -4.889 -28.593  -0.349  0.00  0.00    -0.239 NA
ATOM     10  H   PHE A   1      -4.595 -28.784   0.630  0.00  0.00    +0.142 HD
ENDBRANCH   8   9
BRANCH   8  11
ATOM     11  C   PHE A   1      -4.081 -29.874  -2.254  0.00  0.00    +0.224 C 
ATOM     12  O   PHE A   1      -4.291 -30.980  -1.742  0.00  0.00    -0.287 OA
ENDBRANCH   8  11
ENDBRANCH   1   8
TORSDOF 4
REMARK  Name = ../refined-set-2016/4ye3/4ye3_pocket.pdb
REMARK  232 active torsions:
REMARK  status: ('A' for Active; 'I' for Inactive)
REMARK    1  A    between atoms: _1  and  _3
REMARK    2  A    between atoms: _3  and  _4
REMARK    3  A    between atoms: _3  and  _6
REMARK    4  A    between atoms: _6  and  _7
REMARK    5  A    between atoms: _7  and  _8
REMARK    6  A    between atoms: _8  and  _9
REMARK    7  A    between atoms: _18  and  _20
REMARK    8  A    between atoms: _20  and  _21
REMARK    9  A    between atoms: _20  and  _23
REMARK   10  A    between atoms: _23  and  _24
REMARK   11  A    between atoms: _30  and  _32
REMARK   12  A    between atoms: _32  and  _33
REMARK   13  A    between atoms: _32  and  _35
REMARK   14  A    between atoms: _35  and  _36
REMARK   15  A    between atoms: _39  and  _41
REMARK   16  A    between atoms: _41  and  _42
REMARK   17  A    between atoms: _41  and  _44
REMARK   18  A    between atoms: _44  and  _45
REMARK   19  A    between atoms: _48  and  _50
REMARK   20  A    between atoms: _50  and  _51
REMARK   21  A    between atoms: _50  and  _53
REMARK   22  A    between atoms: _53  and  _54
REMARK   23  A    between atoms: _57  and  _59
REMARK   24  A    between atoms: _59  and  _60
REMARK   25  A    between atoms: _59  and  _62
REMARK   26  A    between atoms: _62  and  _63
REMARK   27  A    between atoms: _66  and  _68
REMARK   28  A    between atoms: _68  and  _69
REMARK   29  A    between atoms: _71  and  _73
REMARK   30  A    between atoms: _73  and  _74
REMARK   31  A    between atoms: _77  and  _79
REMARK   32  A    between atoms: _79  and  _80
REMARK   33  A    between atoms: _79  and  _82
REMARK   34  A    between atoms: _82  and  _83
REMARK   35  A    between atoms: _86  and  _88
REMARK   36  A    between atoms: _88  and  _89
REMARK   37  A    between atoms: _88  and  _91
REMARK   38  A    between atoms: _91  and  _92
REMARK   39  A    between atoms: _97  and  _99
REMARK   40  A    between atoms: _99  and  _100
REMARK   41  A    between atoms: _99  and  _102
REMARK   42  A    between atoms: _102  and  _103
REMARK   43  A    between atoms: _106  and  _108
REMARK   44  A    between atoms: _108  and  _109
REMARK   45  A    between atoms: _108  and  _111
REMARK   46  A    between atoms: _111  and  _112
REMARK   47  A    between atoms: _115  and  _117
REMARK   48  A    between atoms: _117  and  _118
REMARK   49  A    between atoms: _117  and  _120
REMARK   50  A    between atoms: _120  and  _121
REMARK   51  A    between atoms: _121  and  _122
REMARK   52  A    between atoms: _122  and  _123
REMARK   53  A    between atoms: _123  and  _124
REMARK   54  A    between atoms: _128  and  _130
REMARK   55  A    between atoms: _130  and  _131
REMARK   56  A    between atoms: _130  and  _133
REMARK   57  A    between atoms: _133  and  _134
REMARK   58  A    between atoms: _134  and  _135
REMARK   59  A    between atoms: _137  and  _139
REMARK   60  A    between atoms: _139  and  _140
REMARK   61  A    between atoms: _139  and  _142
REMARK   62  A    between atoms: _145  and  _147
REMARK   63  A    between atoms: _147  and  _148
REMARK   64  A    between atoms: _150  and  _152
REMARK   65  A    between atoms: _152  and  _153
REMARK   66  A    between atoms: _155  and  _157
REMARK   67  A    between atoms: _157  and  _158
REMARK   68  A    between atoms: _157  and  _160
REMARK   69  A    between atoms: _160  and  _161
REMARK   70  A    between atoms: _164  and  _166
REMARK   71  A    between atoms: _166  and  _167
REMARK   72  A    between atoms: _169  and  _171
REMARK   73  A    between atoms: _171  and  _172
REMARK   74  A    between atoms: _174  and  _176
REMARK   75  A    between atoms: _176  and  _177
REMARK   76  A    between atoms: _176  and  _179
REMARK   77  A    between atoms: _179  and  _180
REMARK   78  A    between atoms: _186  and  _188
REMARK   79  A    between atoms: _188  and  _189
REMARK   80  A    between atoms: _188  and  _191
REMARK   81  A    between atoms: _191  and  _192
REMARK   82  A    between atoms: _195  and  _197
REMARK   83  A    between atoms: _197  and  _198
REMARK   84  A    between atoms: _197  and  _200
REMARK   85  A    between atoms: _200  and  _201
REMARK   86  A    between atoms: _204  and  _206
REMARK   87  A    between atoms: _206  and  _207
REMARK   88  A    between atoms: _206  and  _209
REMARK   89  A    between atoms: _209  and  _210
REMARK   90  A    between atoms: _214  and  _215
REMARK   91  A    between atoms: _220  and  _222
REMARK   92  A    between atoms: _222  and  _223
REMARK   93  A    between atoms: _222  and  _225
REMARK   94  A    between atoms: _228  and  _230
REMARK   95  A    between atoms: _230  and  _231
REMARK   96  A    between atoms: _230  and  _233
REMARK   97  A    between atoms: _233  and  _234
REMARK   98  A    between atoms: _239  and  _241
REMARK   99  A    between atoms: _241  and  _242
REMARK  100  A    between atoms: _241  and  _244
REMARK  101  A    between atoms: _247  and  _249
REMARK  102  A    between atoms: _249  and  _250
REMARK  103  A    between atoms: _249  and  _252
REMARK  104  A    between atoms: _252  and  _253
REMARK  105  A    between atoms: _256  and  _258
REMARK  106  A    between atoms: _258  and  _259
REMARK  107  A    between atoms: _261  and  _263
REMARK  108  A    between atoms: _263  and  _264
REMARK  109  A    between atoms: _263  and  _266
REMARK  110  A    between atoms: _266  and  _267
REMARK  111  A    between atoms: _267  and  _268
REMARK  112  A    between atoms: _268  and  _269
REMARK  113  A    between atoms: _278  and  _280
REMARK  114  A    between atoms: _280  and  _281
REMARK  115  A    between atoms: _280  and  _283
REMARK  116  A    between atoms: _283  and  _284
REMARK  117  A    between atoms: _287  and  _289
REMARK  118  A    between atoms: _289  and  _290
REMARK  119  A    between atoms: _289  and  _292
REMARK  120  A    between atoms: _292  and  _293
REMARK  121  A    between atoms: _293  and  _294
REMARK  122  A    between atoms: _294  and  _295
REMARK  123  A    between atoms: _304  and  _306
REMARK  124  A    between atoms: _306  and  _307
REMARK  125  A    between atoms: _306  and  _309
REMARK  126  A    between atoms: _309  and  _310
REMARK  127  A    between atoms: _316  and  _318
REMARK  128  A    between atoms: _318  and  _319
REMARK  129  A    between atoms: _318  and  _321
REMARK  130  A    between atoms: _321  and  _322
REMARK  131  A    between atoms: _325  and  _327
REMARK  132  A    between atoms: _327  and  _328
REMARK  133  A    between atoms: _327  and  _330
REMARK  134  A    between atoms: _330  and  _331
REMARK  135  A    between atoms: _334  and  _336
REMARK  136  A    between atoms: _336  and  _337
REMARK  137  A    between atoms: _336  and  _339
REMARK  138  A    between atoms: _339  and  _340
REMARK  139  A    between atoms: _343  and  _345
REMARK  140  A    between atoms: _345  and  _346
REMARK  141  A    between atoms: _345  and  _348
REMARK  142  A    between atoms: _348  and  _349
REMARK  143  A    between atoms: _352  and  _354
REMARK  144  A    between atoms: _354  and  _355
REMARK  145  A    between atoms: _357  and  _359
REMARK  146  A    between atoms: _359  and  _360
REMARK  147  A    between atoms: _363  and  _365
REMARK  148  A    between atoms: _365  and  _366
REMARK  149  A    between atoms: _365  and  _368
REMARK  150  A    between atoms: _368  and  _369
REMARK  151  A    between atoms: _372  and  _374
REMARK  152  A    between atoms: _374  and  _375
REMARK  153  A    between atoms: _374  and  _377
REMARK  154  A    between atoms: _377  and  _378
REMARK  155  A    between atoms: _383  and  _385
REMARK  156  A    between atoms: _385  and  _386
REMARK  157  A    between atoms: _385  and  _388
REMARK  158  A    between atoms: _388  and  _389
REMARK  159  A    between atoms: _392  and  _394
REMARK  160  A    between atoms: _394  and  _395
REMARK  161  A    between atoms: _394  and  _397
REMARK  162  A    between atoms: _397  and  _398
REMARK  163  A    between atoms: _401  and  _403
REMARK  164  A    between atoms: _403  and  _404
REMARK  165  A    between atoms: _403  and  _406
REMARK  166  A    between atoms: _406  and  _407
REMARK  167  A    between atoms: _407  and  _408
REMARK  168  A    between atoms: _408  and  _409
REMARK  169  A    between atoms: _409  and  _410
REMARK  170  A    between atoms: _414  and  _416
REMARK  171  A    between atoms: _416  and  _417
REMARK  172  A    between atoms: _416  and  _419
REMARK  173  A    between atoms: _419  and  _420
REMARK  174  A    between atoms: _420  and  _421
REMARK  175  A    between atoms: _423  and  _425
REMARK  176  A    between atoms: _425  and  _426
REMARK  177  A    between atoms: _425  and  _428
REMARK  178  A    between atoms: _431  and  _433
REMARK  179  A    between atoms: _433  and  _434
REMARK  180  A    between atoms: _436  and  _438
REMARK  181  A    between atoms: _438  and  _439
REMARK  182  A    between atoms: _441  and  _443
REMARK  183  A    between atoms: _443  and  _444
REMARK  184  A    between atoms: _443  and  _446
REMARK  185  A    between atoms: _446  and  _447
REMARK  186  A    between atoms: _450  and  _452
REMARK  187  A    between atoms: _452  and  _453
REMARK  188  A    between atoms: _455  and  _457
REMARK  189  A    between atoms: _457  and  _458
REMARK  190  A    between atoms: _460  and  _462
REMARK  191  A    between atoms: _462  and  _463
REMARK  192  A    between atoms: _462  and  _465
REMARK  193  A    between atoms: _465  and  _466
REMARK  194  A    between atoms: _472  and  _474
REMARK  195  A    between atoms: _474  and  _475
REMARK  196  A    between atoms: _474  and  _477
REMARK  197  A    between atoms: _477  and  _478
REMARK  198  A    between atoms: _481  and  _483
REMARK  199  A    between atoms: _483  and  _484
REMARK  200  A    between atoms: _483  and  _486
REMARK  201  A    between atoms: _486  and  _487
REMARK  202  A    between atoms: _490  and  _492
REMARK  203  A    between atoms: _492  and  _493
REMARK  204  A    between atoms: _492  and  _495
REMARK  205  A    between atoms: _495  and  _496
REMARK  206  A    between atoms: _500  and  _501
REMARK  207  A    between atoms: _506  and  _508
REMARK  208  A    between atoms: _508  and  _509
REMARK  209  A    between atoms: _508  and  _511
REMARK  210  A    between atoms: _514  and  _516
REMARK  211  A    between atoms: _516  and  _517
REMARK  212  A    between atoms: _516  and  _519
REMARK  213  A    between atoms: _519  and  _520
REMARK  214  A    between atoms: _525  and  _527
REMARK  215  A    between atoms: _527  and  _528
REMARK  216  A    between atoms: _527  and  _530
REMARK  217  A    between atoms: _533  and  _535
REMARK  218  A    between atoms: _535  and  _536
REMARK  219  A    between atoms: _535  and  _538
REMARK  220  A    between atoms: _538  and  _539
REMARK  221  A    between atoms: _542  and  _544
REMARK  222  A    between atoms: _544  and  _545
REMARK  223  A    between atoms: _547  and  _549
REMARK  224  A    between atoms: _549  and  _550
REMARK  225  A    between atoms: _549  and  _552
REMARK  226  A    between atoms: _552  and  _553
REMARK  227  A    between atoms: _553  and  _554
REMARK  228  A    between atoms: _554  and  _555
REMARK  229  A    between atoms: _564  and  _566
REMARK  230  A    between atoms: _566  and  _567
REMARK  231  A    between atoms: _566  and  _569
REMARK  232  A    between atoms: _569  and  _570
REMARK                            x       y       z     vdW  Elec       q    Type
REMARK                         _______ _______ _______ _____ _____    ______ ____
ROOT
ATOM      1  C   GLY A   5     -13.032 -17.838  -4.366  0.00  0.00    +0.243 C 
ATOM      2  O   GLY A   5     -13.097 -16.598  -4.461  0.00  0.00    -0.273 OA
ATOM      3  N   ALA A   6     -12.352 -18.603  -5.240  0.00  0.00    -0.297 N 
ATOM      4  H   ALA A   6     -12.363 -19.636  -5.120  0.00  0.00    +0.150 HD
ENDROOT
BRANCH   3   5
ATOM      5  CA  ALA A   6     -11.598 -18.029  -6.353  0.00  0.00    +0.149 C 
ATOM      6  CB  ALA A   6     -10.228 -18.698  -6.398  0.00  0.00    +0.031 C 
BRANCH   5   7
ATOM      7  C   ALA A   6     -12.308 -18.313  -7.641  0.00  0.00    +0.241 C 
ATOM      8  O   ALA A   6     -12.607 -19.468  -7.989  0.00  0.00    -0.273 OA
ATOM      9  N   ASP A   7     -12.593 -17.244  -8.411  0.00  0.00    -0.297 N 
ATOM     10  H   ASP A   7     -12.357 -16.284  -8.089  0.00  0.00    +0.150 HD
BRANCH   9  11
ATOM     11  CA  ASP A   7     -13.248 -17.458  -9.723  0.00  0.00    +0.160 C 
BRANCH  11  12
ATOM     12  C   ASP A   7     -12.220 -18.095 -10.695  0.00  0.00    +0.241 C 
ATOM     13  N   ASN A   8     -10.953 -17.729 -10.600  0.00  0.00    -0.297 N 
ATOM     14  H   ASN A   8     -10.654 -17.103  -9.825  0.00  0.00    +0.150 HD
ATOM     15  O   ASP A   7     -12.643 -18.904 -11.533  0.00  0.00    -0.273 OA
BRANCH  13  16
ATOM     16  CA  ASN A   8      -9.996 -18.183 -11.548  0.00  0.00    +0.158 C 
BRANCH  16  17
ATOM     17  C   ASN A   8      -8.841 -18.911 -10.903  0.00  0.00    +0.241 C 
ATOM     18  O   ASN A   8      -8.657 -18.875  -9.702  0.00  0.00    -0.273 OA
ATOM     19  N   THR A   9      -8.040 -19.536 -11.718  0.00  0.00    -0.295 N 
ATOM     20  H   THR A   9      -8.234 -19.454 -12.736  0.00  0.00    +0.150 HD
BRANCH  19  21
ATOM     21  CA  THR A   9      -6.910 -20.329 -11.323  0.00  0.00    +0.176 C 
BRANCH  21  22
ATOM     22  C   THR A   9      -5.665 -19.482 -11.523  0.00  0.00    +0.243 C 
ATOM     23  N   ILE A  10      -4.779 -19.474 -10.540  0.00  0.00    -0.298 N 
ATOM     24  H   ILE A  10      -4.912 -20.124  -9.739  0.00  0.00    +0.150 HD
ATOM     25  O   THR A   9      -5.481 -18.894 -12.622  0.00  0.00    -0.273 OA
BRANCH  23  26
ATOM     26  CA  ILE A  10      -3.632 -18.593 -10.541  0.00  0.00    +0.137 C 
BRANCH  26  27
ATOM     27  C   ILE A  10      -2.409 -19.338 -10.038  0.00  0.00    +0.227 C 
ATOM     28  O   ILE A  10      -2.488 -20.043  -8.992  0.00  0.00    -0.286 OA
ENDBRANCH  26  27
BRANCH  26  29
ATOM     29  CB  ILE A  10      -3.850 -17.364  -9.653  0.00  0.00    +0.026 C 
ATOM     30  CG2 ILE A  10      -2.681 -16.366  -9.793  0.00  0.00    +0.002 C 
BRANCH  29  31
ATOM     31  CG1 ILE A  10      -5.207 -16.755  -9.904  0.00  0.00    +0.002 C 
ATOM     32  CD1 ILE A  10      -5.476 -15.525  -9.095  0.00  0.00    +0.000 C 
ENDBRANCH  29  31
ENDBRANCH  26  29
ENDBRANCH  23  26
ENDBRANCH  21  22
BRANCH  21  33
ATOM     33  CB  THR A   9      -6.899 -21.565 -12.243  0.00  0.00    +0.137 C 
ATOM     34  CG2 THR A   9      -5.653 -22.376 -12.093  0.00  0.00    +0.034 C 
BRANCH  33  35
ATOM     35  OG1 THR A   9      -8.056 -22.364 -11.834  0.00  0.00    -0.382 OA
ATOM     36  HG1 THR A   9      -8.106 -23.180 -12.392  0.00  0.00    +0.210 HD
ENDBRANCH  33  35
ENDBRANCH  21  33
ENDBRANCH  19  21
ENDBRANCH  16  17
BRANCH  16  37
ATOM     37  CB  ASN A   8      -9.459 -17.023 -12.425  0.00  0.00    +0.114 C 
BRANCH  37  38
ATOM     38  CG  ASN A   8     -10.562 -16.360 -13.203  0.00  0.00    +0.222 C 
ATOM     39  OD1 ASN A   8     -10.789 -15.179 -13.077  0.00  0.00    -0.275 OA
ATOM     40  ND2 ASN A   8     -11.327 -17.136 -13.910  0.00  0.00    -0.329 N 
ATOM     41 HD21 ASN A   8     -11.103 -18.148 -13.998  0.00  0.00    +0.145 HD
ATOM     42 HD22 ASN A   8     -12.164 -16.746 -14.388  0.00  0.00    +0.145 HD
ENDBRANCH  37  38
ENDBRANCH  16  37
ENDBRANCH  13  16
ENDBRANCH  11  12
BRANCH  11  43
ATOM     43  CB  ASP A   7     -13.672 -16.138 -10.340  0.00  0.00    +0.143 C 
BRANCH  43  44
ATOM     44  CG  ASP A   7     -14.736 -15.374  -9.555  0.00  0.00    +0.367 C 
ATOM     45  OD2 ASP A   7     -15.455 -15.942  -8.699  0.00  0.00    -0.246 OA
ATOM     46  OD1 ASP A   7     -14.823 -14.118  -9.841  0.00  0.00    -0.246 OA
ENDBRANCH  43  44
ENDBRANCH  11  43
ENDBRANCH   9  11
ENDBRANCH   5   7
ENDBRANCH   3   5
BRANCH   1  47
ATOM     47  CA  GLY A   5     -13.761 -18.527  -3.225  0.00  0.00    +0.176 C 
BRANCH  47  49
ATOM     48  C   THR A   4     -14.407 -20.775  -3.941  0.00  0.00    +0.243 C 
ATOM     49  N   GLY A   5     -13.598 -19.992  -3.204  0.00  0.00    -0.295 N 
ATOM     50  H   GLY A   5     -12.855 -20.422  -2.617  0.00  0.00    +0.150 HD
ATOM     51  O   THR A   4     -15.365 -20.360  -4.613  0.00  0.00    -0.273 OA
BRANCH  48  52
ATOM     52  CA  THR A   4     -14.118 -22.304  -3.938  0.00  0.00    +0.176 C 
BRANCH  52  54
ATOM     53  C   ASP A   3     -11.704 -22.216  -4.170  0.00  0.00    +0.241 C 
ATOM     54  N   THR A   4     -12.777 -22.578  -3.471  0.00  0.00    -0.295 N 
ATOM     55  H   THR A   4     -12.648 -23.071  -2.565  0.00  0.00    +0.150 HD
ATOM     56  O   ASP A   3     -11.825 -21.568  -5.232  0.00  0.00    -0.273 OA
BRANCH  53  57
ATOM     57  CA  ASP A   3     -10.359 -22.630  -3.613  0.00  0.00    +0.160 C 
BRANCH  57  60
ATOM     58  C   LEU A   2      -9.516 -24.925  -3.441  0.00  0.00    +0.241 C 
ATOM     59  O   LEU A   2      -9.746 -24.988  -2.221  0.00  0.00    -0.273 OA
ATOM     60  N   ASP A   3      -9.880 -23.872  -4.183  0.00  0.00    -0.297 N 
ATOM     61  H   ASP A   3      -9.816 -23.950  -5.218  0.00  0.00    +0.150 HD
BRANCH  58  62
ATOM     62  CA  LEU A   2      -8.742 -26.044  -4.141  0.00  0.00    +0.149 C 
BRANCH  62  64
ATOM     63  C   LEU A   1      -6.540 -24.856  -3.754  0.00  0.00    +0.238 C 
ATOM     64  N   LEU A   2      -7.377 -25.983  -3.602  0.00  0.00    -0.297 N 
ATOM     65  H   LEU A   2      -7.010 -26.807  -3.085  0.00  0.00    +0.150 HD
ATOM     66  O   LEU A   1      -6.759 -23.867  -4.533  0.00  0.00    -0.274 OA
BRANCH  63  67
ATOM     67  CA  LEU A   1      -5.149 -24.739  -2.978  0.00  0.00    +0.145 C 
BRANCH  67  68
ATOM     68  N   LEU A   1      -4.054 -24.703  -3.924  0.00  0.00    -0.238 NA
ATOM     69  H   LEU A   1      -3.667 -23.773  -4.182  0.00  0.00    +0.142 HD
ENDBRANCH  67  68
BRANCH  67  70
ATOM     70  CB  LEU A   1      -5.000 -23.386  -2.230  0.00  0.00    +0.026 C 
BRANCH  70  71
ATOM     71  CG  LEU A   1      -6.016 -23.086  -1.175  0.00  0.00    +0.002 C 
ATOM     72  CD2 LEU A   1      -5.825 -24.088  -0.030  0.00  0.00    +0.000 C 
ATOM     73  CD1 LEU A   1      -5.848 -21.681  -0.672  0.00  0.00    +0.000 C 
ENDBRANCH  70  71
ENDBRANCH  67  70
ENDBRANCH  63  67
ENDBRANCH  62  64
BRANCH  62  74
ATOM     74  CB  LEU A   2      -9.423 -27.343  -3.856  0.00  0.00    +0.029 C 
BRANCH  74  75
ATOM     75  CG  LEU A   2      -8.718 -28.486  -4.518  0.00  0.00    +0.002 C 
ATOM     76  CD2 LEU A   2      -9.416 -29.814  -4.077  0.00  0.00    +0.000 C 
ATOM     77  CD1 LEU A   2      -8.828 -28.308  -6.033  0.00  0.00    +0.000 C 
ENDBRANCH  74  75
ENDBRANCH  62  74
ENDBRANCH  58  62
ENDBRANCH  57  60
BRANCH  57  78
ATOM     78  CB  ASP A   3      -9.306 -21.598  -3.825  0.00  0.00    +0.143 C 
BRANCH  78  79
ATOM     79  CG  ASP A   3      -9.605 -20.378  -3.146  0.00  0.00    +0.367 C 
ATOM     80  OD2 ASP A   3     -10.746 -20.310  -2.551  0.00  0.00    -0.246 OA
ATOM     81  OD1 ASP A   3      -8.770 -19.454  -3.154  0.00  0.00    -0.246 OA
ENDBRANCH  78  79
ENDBRANCH  57  78
ENDBRANCH  53  57
ENDBRANCH  52  54
BRANCH  52  82
ATOM     82  CB  THR A   4     -15.166 -23.040  -3.102  0.00  0.00    +0.137 C 
ATOM     83  CG2 THR A   4     -15.011 -24.565  -3.250  0.00  0.00    +0.034 C 
BRANCH  82  84
ATOM     84  OG1 THR A   4     -15.032 -22.656  -1.723  0.00  0.00    -0.382 OA
ATOM     85  HG1 THR A   4     -15.168 -21.679  -1.639  0.00  0.00    +0.210 HD
ENDBRANCH  82  84
ENDBRANCH  52  82
ENDBRANCH  48  52
ENDBRANCH  47  49
ENDBRANCH   1  47
TORSDOF 36
REMARK  Name = ../refined-set-2016/4ye3/4ye3_pocket.pdb
REMARK  232 active torsions:
REMARK  status: ('A' for Active; 'I' for Inactive)
REMARK    1  A    between atoms: _1  and  _3
REMARK    2  A    between atoms: _3  and  _4
REMARK    3  A    between atoms: _3  and  _6
REMARK    4  A    between atoms: _6  and  _7
REMARK    5  A    between atoms: _7  and  _8
REMARK    6  A    between atoms: _8  and  _9
REMARK    7  A    between atoms: _18  and  _20
REMARK    8  A    between atoms: _20  and  _21
REMARK    9  A    between atoms: _20  and  _23
REMARK   10  A    between atoms: _23  and  _24
REMARK   11  A    between atoms: _30  and  _32
REMARK   12  A    between atoms: _32  and  _33
REMARK   13  A    between atoms: _32  and  _35
REMARK   14  A    between atoms: _35  and  _36
REMARK   15  A    between atoms: _39  and  _41
REMARK   16  A    between atoms: _41  and  _42
REMARK   17  A    between atoms: _41  and  _44
REMARK   18  A    between atoms: _44  and  _45
REMARK   19  A    between atoms: _48  and  _50
REMARK   20  A    between atoms: _50  and  _51
REMARK   21  A    between atoms: _50  and  _53
REMARK   22  A    between atoms: _53  and  _54
REMARK   23  A    between atoms: _57  and  _59
REMARK   24  A    between atoms: _59  and  _60
REMARK   25  A    between atoms: _59  and  _62
REMARK   26  A    between atoms: _62  and  _63
REMARK   27  A    between atoms: _66  and  _68
REMARK   28  A    between atoms: _68  and  _69
REMARK   29  A    between atoms: _71  and  _73
REMARK   30  A    between atoms: _73  and  _74
REMARK   31  A    between atoms: _77  and  _79
REMARK   32  A    between atoms: _79  and  _80
REMARK   33  A    between atoms: _79  and  _82
REMARK   34  A    between atoms: _82  and  _83
REMARK   35  A    between atoms: _86  and  _88
REMARK   36  A    between atoms: _88  and  _89
REMARK   37  A    between atoms: _88  and  _91
REMARK   38  A    between atoms: _91  and  _92
REMARK   39  A    between atoms: _97  and  _99
REMARK   40  A    between atoms: _99  and  _100
REMARK   41  A    between atoms: _99  and  _102
REMARK   42  A    between atoms: _102  and  _103
REMARK   43  A    between atoms: _106  and  _108
REMARK   44  A    between atoms: _108  and  _109
REMARK   45  A    between atoms: _108  and  _111
REMARK   46  A    between atoms: _111  and  _112
REMARK   47  A    between atoms: _115  and  _117
REMARK   48  A    between atoms: _117  and  _118
REMARK   49  A    between atoms: _117  and  _120
REMARK   50  A    between atoms: _120  and  _121
REMARK   51  A    between atoms: _121  and  _122
REMARK   52  A    between atoms: _122  and  _123
REMARK   53  A    between atoms: _123  and  _124
REMARK   54  A    between atoms: _128  and  _130
REMARK   55  A    between atoms: _130  and  _131
REMARK   56  A    between atoms: _130  and  _133
REMARK   57  A    between atoms: _133  and  _134
REMARK   58  A    between atoms: _134  and  _135
REMARK   59  A    between atoms: _137  and  _139
REMARK   60  A    between atoms: _139  and  _140
REMARK   61  A    between atoms: _139  and  _142
REMARK   62  A    between atoms: _145  and  _147
REMARK   63  A    between atoms: _147  and  _148
REMARK   64  A    between atoms: _150  and  _152
REMARK   65  A    between atoms: _152  and  _153
REMARK   66  A    between atoms: _155  and  _157
REMARK   67  A    between atoms: _157  and  _158
REMARK   68  A    between atoms: _157  and  _160
REMARK   69  A    between atoms: _160  and  _161
REMARK   70  A    between atoms: _164  and  _166
REMARK   71  A    between atoms: _166  and  _167
REMARK   72  A    between atoms: _169  and  _171
REMARK   73  A    between atoms: _171  and  _172
REMARK   74  A    between atoms: _174  and  _176
REMARK   75  A    between atoms: _176  and  _177
REMARK   76  A    between atoms: _176  and  _179
REMARK   77  A    between atoms: _179  and  _180
REMARK   78  A    between atoms: _186  and  _188
REMARK   79  A    between atoms: _188  and  _189
REMARK   80  A    between atoms: _188  and  _191
REMARK   81  A    between atoms: _191  and  _192
REMARK   82  A    between atoms: _195  and  _197
REMARK   83  A    between atoms: _197  and  _198
REMARK   84  A    between atoms: _197  and  _200
REMARK   85  A    between atoms: _200  and  _201
REMARK   86  A    between atoms: _204  and  _206
REMARK   87  A    between atoms: _206  and  _207
REMARK   88  A    between atoms: _206  and  _209
REMARK   89  A    between atoms: _209  and  _210
REMARK   90  A    between atoms: _214  and  _215
REMARK   91  A    between atoms: _220  and  _222
REMARK   92  A    between atoms: _222  and  _223
REMARK   93  A    between atoms: _222  and  _225
REMARK   94  A    between atoms: _228  and  _230
REMARK   95  A    between atoms: _230  and  _231
REMARK   96  A    between atoms: _230  and  _233
REMARK   97  A    between atoms: _233  and  _234
REMARK   98  A    between atoms: _239  and  _241
REMARK   99  A    between atoms: _241  and  _242
REMARK  100  A    between atoms: _241  and  _244
REMARK  101  A    between atoms: _247  and  _249
REMARK  102  A    between atoms: _249  and  _250
REMARK  103  A    between atoms: _249  and  _252
REMARK  104  A    between atoms: _252  and  _253
REMARK  105  A    between atoms: _256  and  _258
REMARK  106  A    between atoms: _258  and  _259
REMARK  107  A    between atoms: _261  and  _263
REMARK  108  A    between atoms: _263  and  _264
REMARK  109  A    between atoms: _263  and  _266
REMARK  110  A    between atoms: _266  and  _267
REMARK  111  A    between atoms: _267  and  _268
REMARK  112  A    between atoms: _268  and  _269
REMARK  113  A    between atoms: _278  and  _280
REMARK  114  A    between atoms: _280  and  _281
REMARK  115  A    between atoms: _280  and  _283
REMARK  116  A    between atoms: _283  and  _284
REMARK  117  A    between atoms: _287  and  _289
REMARK  118  A    between atoms: _289  and  _290
REMARK  119  A    between atoms: _289  and  _292
REMARK  120  A    between atoms: _292  and  _293
REMARK  121  A    between atoms: _293  and  _294
REMARK  122  A    between atoms: _294  and  _295
REMARK  123  A    between atoms: _304  and  _306
REMARK  124  A    between atoms: _306  and  _307
REMARK  125  A    between atoms: _306  and  _309
REMARK  126  A    between atoms: _309  and  _310
REMARK  127  A    between atoms: _316  and  _318
REMARK  128  A    between atoms: _318  and  _319
REMARK  129  A    between atoms: _318  and  _321
REMARK  130  A    between atoms: _321  and  _322
REMARK  131  A    between atoms: _325  and  _327
REMARK  132  A    between atoms: _327  and  _328
REMARK  133  A    between atoms: _327  and  _330
REMARK  134  A    between atoms: _330  and  _331
REMARK  135  A    between atoms: _334  and  _336
REMARK  136  A    between atoms: _336  and  _337
REMARK  137  A    between atoms: _336  and  _339
REMARK  138  A    between atoms: _339  and  _340
REMARK  139  A    between atoms: _343  and  _345
REMARK  140  A    between atoms: _345  and  _346
REMARK  141  A    between atoms: _345  and  _348
REMARK  142  A    between atoms: _348  and  _349
REMARK  143  A    between atoms: _352  and  _354
REMARK  144  A    between atoms: _354  and  _355
REMARK  145  A    between atoms: _357  and  _359
REMARK  146  A    between atoms: _359  and  _360
REMARK  147  A    between atoms: _363  and  _365
REMARK  148  A    between atoms: _365  and  _366
REMARK  149  A    between atoms: _365  and  _368
REMARK  150  A    between atoms: _368  and  _369
REMARK  151  A    between atoms: _372  and  _374
REMARK  152  A    between atoms: _374  and  _375
REMARK  153  A    between atoms: _374  and  _377
REMARK  154  A    between atoms: _377  and  _378
REMARK  155  A    between atoms: _383  and  _385
REMARK  156  A    between atoms: _385  and  _386
REMARK  157  A    between atoms: _385  and  _388
REMARK  158  A    between atoms: _388  and  _389
REMARK  159  A    between atoms: _392  and  _394
REMARK  160  A    between atoms: _394  and  _395
REMARK  161  A    between atoms: _394  and  _397
REMARK  162  A    between atoms: _397  and  _398
REMARK  163  A    between atoms: _401  and  _403
REMARK  164  A    between atoms: _403  and  _404
REMARK  165  A    between atoms: _403  and  _406
REMARK  166  A    between atoms: _406  and  _407
REMARK  167  A    between atoms: _407  and  _408
REMARK  168  A    between atoms: _408  and  _409
REMARK  169  A    between atoms: _409  and  _410
REMARK  170  A    between atoms: _414  and  _416
REMARK  171  A    between atoms: _416  and  _417
REMARK  172  A    between atoms: _416  and  _419
REMARK  173  A    between atoms: _419  and  _420
REMARK  174  A    between atoms: _420  and  _421
REMARK  175  A    between atoms: _423  and  _425
REMARK  176  A    between atoms: _425  and  _426
REMARK  177  A    between atoms: _425  and  _428
REMARK  178  A    between atoms: _431  and  _433
REMARK  179  A    between atoms: _433  and  _434
REMARK  180  A    between atoms: _436  and  _438
REMARK  181  A    between atoms: _438  and  _439
REMARK  182  A    between atoms: _441  and  _443
REMARK  183  A    between atoms: _443  and  _444
REMARK  184  A    between atoms: _443  and  _446
REMARK  185  A    between atoms: _446  and  _447
REMARK  186  A    between atoms: _450  and  _452
REMARK  187  A    between atoms: _452  and  _453
REMARK  188  A    between atoms: _455  and  _457
REMARK  189  A    between atoms: _457  and  _458
REMARK  190  A    between atoms: _460  and  _462
REMARK  191  A    between atoms: _462  and  _463
REMARK  192  A    between atoms: _462  and  _465
REMARK  193  A    between atoms: _465  and  _466
REMARK  194  A    between atoms: _472  and  _474
REMARK  195  A    between atoms: _474  and  _475
REMARK  196  A    between atoms: _474  and  _477
REMARK  197  A    between atoms: _477  and  _478
REMARK  198  A    between atoms: _481  and  _483
REMARK  199  A    between atoms: _483  and  _484
REMARK  200  A    between atoms: _483  and  _486
REMARK  201  A    between atoms: _486  and  _487
REMARK  202  A    between atoms: _490  and  _492
REMARK  203  A    between atoms: _492  and  _493
REMARK  204  A    between atoms: _492  and  _495
REMARK  205  A    between atoms: _495  and  _496
REMARK  206  A    between atoms: _500  and  _501
REMARK  207  A    between atoms: _506  and  _508
REMARK  208  A    between atoms: _508  and  _509
REMARK  209  A    between atoms: _508  and  _511
REMARK  210  A    between atoms: _514  and  _516
REMARK  211  A    between atoms: _516  and  _517
REMARK  212  A    between atoms: _516  and  _519
REMARK  213  A    between atoms: _519  and  _520
REMARK  214  A    between atoms: _525  and  _527
REMARK  215  A    between atoms: _527  and  _528
REMARK  216  A    between atoms: _527  and  _530
REMARK  217  A    between atoms: _533  and  _535
REMARK  218  A    between atoms: _535  and  _536
REMARK  219  A    between atoms: _535  and  _538
REMARK  220  A    between atoms: _538  and  _539
REMARK  221  A    between atoms: _542  and  _544
REMARK  222  A    between atoms: _544  and  _545
REMARK  223  A    between atoms: _547  and  _549
REMARK  224  A    between atoms: _549  and  _550
REMARK  225  A    between atoms: _549  and  _552
REMARK  226  A    between atoms: _552  and  _553
REMARK  227  A    between atoms: _553  and  _554
REMARK  228  A    between atoms: _554  and  _555
REMARK  229  A    between atoms: _564  and  _566
REMARK  230  A    between atoms: _566  and  _567
REMARK  231  A    between atoms: _566  and  _569
REMARK  232  A    between atoms: _569  and  _570
REMARK                            x       y       z     vdW  Elec       q    Type
REMARK                         _______ _______ _______ _____ _____    ______ ____
ROOT
ATOM      1  C   GLY A   5      -8.734  -9.382  -2.699  0.00  0.00    +0.243 C 
ATOM      2  N   ILE A   6      -8.484  -9.842  -1.495  0.00  0.00    -0.297 N 
ATOM      3  H   ILE A   6      -7.868 -10.675  -1.407  0.00  0.00    +0.150 HD
ATOM      4  O   GLY A   5      -9.394  -8.305  -2.963  0.00  0.00    -0.273 OA
ENDROOT
BRANCH   2   5
ATOM      5  CA  ILE A   6      -8.999  -9.275  -0.324  0.00  0.00    +0.149 C 
BRANCH   5   6
ATOM      6  C   ILE A   6      -8.281  -7.902  -0.175  0.00  0.00    +0.241 C 
ATOM      7  O   ILE A   6      -8.891  -7.057   0.435  0.00  0.00    -0.273 OA
ATOM      8  N   GLY A   7      -7.045  -7.763  -0.778  0.00  0.00    -0.295 N 
ATOM      9  H   GLY A   7      -6.796  -8.529  -1.436  0.00  0.00    +0.150 HD
BRANCH   8  10
ATOM     10  CA  GLY A   7      -6.012  -6.701  -0.643  0.00  0.00    +0.176 C 
BRANCH  10  11
ATOM     11  C   GLY A   7      -6.085  -5.610  -1.670  0.00  0.00    +0.243 C 
ATOM     12  O   GLY A   7      -5.573  -4.480  -1.495  0.00  0.00    -0.273 OA
ATOM     13  N   GLY A   8      -6.812  -5.880  -2.757  0.00  0.00    -0.295 N 
ATOM     14  H   GLY A   8      -7.365  -6.759  -2.805  0.00  0.00    +0.150 HD
BRANCH  13  15
ATOM     15  CA  GLY A   8      -6.833  -4.952  -3.869  0.00  0.00    +0.176 C 
BRANCH  15  16
ATOM     16  C   GLY A   8      -6.489  -5.787  -5.058  0.00  0.00    +0.243 C 
ATOM     17  O   GLY A   8      -7.107  -6.799  -5.329  0.00  0.00    -0.273 OA
ATOM     18  N   PHE A   9      -5.486  -5.375  -5.798  0.00  0.00    -0.297 N 
ATOM     19  H   PHE A   9      -4.930  -4.532  -5.550  0.00  0.00    +0.150 HD
BRANCH  18  20
ATOM     20  CA  PHE A   9      -5.204  -6.145  -6.956  0.00  0.00    +0.153 C 
BRANCH  20  21
ATOM     21  C   PHE A   9      -3.702  -6.730  -7.132  0.00  0.00    +0.241 C 
ATOM     22  O   PHE A   9      -2.750  -6.123  -6.656  0.00  0.00    -0.273 OA
ATOM     23  N   LEU A  10      -3.564  -7.955  -7.674  0.00  0.00    -0.298 N 
ATOM     24  H   LEU A  10      -4.443  -8.506  -7.751  0.00  0.00    +0.150 HD
BRANCH  23  25
ATOM     25  CA  LEU A  10      -2.370  -8.622  -8.167  0.00  0.00    +0.137 C 
BRANCH  25  26
ATOM     26  C   LEU A  10      -2.411  -8.458  -9.693  0.00  0.00    +0.227 C 
ATOM     27  O   LEU A  10      -3.471  -8.743 -10.341  0.00  0.00    -0.286 OA
ENDBRANCH  25  26
BRANCH  25  28
ATOM     28  CB  LEU A  10      -2.499 -10.148  -7.826  0.00  0.00    +0.028 C 
BRANCH  28  29
ATOM     29  CG  LEU A  10      -1.398 -11.141  -8.294  0.00  0.00    +0.002 C 
ATOM     30  CD2 LEU A  10      -0.142 -10.898  -7.457  0.00  0.00    +0.000 C 
ATOM     31  CD1 LEU A  10      -1.897 -12.570  -8.150  0.00  0.00    +0.000 C 
ENDBRANCH  28  29
ENDBRANCH  25  28
ENDBRANCH  23  25
ENDBRANCH  20  21
BRANCH  20  32
ATOM     32  CB  PHE A   9      -5.804  -5.351  -8.124  0.00  0.00    +0.055 C 
BRANCH  32  33
ATOM     33  CG  PHE A   9      -7.393  -5.355  -8.205  0.00  0.00    -0.020 A 
ATOM     34  CD2 PHE A   9      -8.204  -4.704  -7.245  0.00  0.00    -0.004 A 
ATOM     35  CE2 PHE A   9      -9.628  -4.729  -7.347  0.00  0.00    -0.000 A 
ATOM     36  CZ  PHE A   9     -10.274  -5.440  -8.346  0.00  0.00    -0.000 A 
ATOM     37  CE1 PHE A   9      -9.497  -6.092  -9.345  0.00  0.00    -0.000 A 
ATOM     38  CD1 PHE A   9      -8.069  -6.037  -9.247  0.00  0.00    -0.004 A 
ENDBRANCH  32  33
ENDBRANCH  20  32
ENDBRANCH  18  20
ENDBRANCH  15  16
ENDBRANCH  13  15
ENDBRANCH  10  11
ENDBRANCH   8  10
ENDBRANCH   5   6
BRANCH   5  39
ATOM     39  CB  ILE A   6      -8.769 -10.228   0.880  0.00  0.00    +0.027 C 
ATOM     40  CG2 ILE A   6      -7.312 -10.239   1.233  0.00  0.00    +0.002 C 
BRANCH  39  41
ATOM     41  CG1 ILE A   6      -9.648  -9.855   2.092  0.00  0.00    +0.002 C 
ATOM     42  CD1 ILE A   6      -9.598 -10.972   3.120  0.00  0.00    +0.000 C 
ENDBRANCH  39  41
ENDBRANCH   5  39
ENDBRANCH   2   5
BRANCH   1  43
ATOM     43  CA  GLY A   5      -8.022 -10.192  -3.705  0.00  0.00    +0.176 C 
BRANCH  43  45
ATOM     44  C   GLY A   4      -8.837  -9.355  -5.537  0.00  0.00    +0.243 C 
ATOM     45  N   GLY A   5      -7.986  -9.216  -4.579  0.00  0.00    -0.295 N 
ATOM     46  H   GLY A   5      -7.335  -8.409  -4.507  0.00  0.00    +0.150 HD
ATOM     47  O   GLY A   4      -9.677 -10.254  -5.557  0.00  0.00    -0.273 OA
BRANCH  44  48
ATOM     48  CA  GLY A   4      -8.751  -8.323  -6.600  0.00  0.00    +0.176 C 
BRANCH  48  50
ATOM     49  C   VAL A   3      -7.343  -9.090  -8.409  0.00  0.00    +0.241 C 
ATOM     50  N   GLY A   4      -8.534  -9.030  -7.817  0.00  0.00    -0.295 N 
ATOM     51  H   GLY A   4      -9.338  -9.519  -8.261  0.00  0.00    +0.150 HD
ATOM     52  O   VAL A   3      -6.278  -8.724  -7.869  0.00  0.00    -0.273 OA
BRANCH  49  53
ATOM     53  CA  VAL A   3      -7.376  -9.653  -9.811  0.00  0.00    +0.149 C 
BRANCH  53  55
ATOM     54  C   MET A   2      -6.677  -8.650 -12.023  0.00  0.00    +0.241 C 
ATOM     55  N   VAL A   3      -6.429  -8.997 -10.743  0.00  0.00    -0.297 N 
ATOM     56  H   VAL A   3      -5.480  -8.783 -10.374  0.00  0.00    +0.150 HD
ATOM     57  O   MET A   2      -7.763  -8.877 -12.621  0.00  0.00    -0.273 OA
BRANCH  54  58
ATOM     58  CA  MET A   2      -5.664  -7.745 -12.705  0.00  0.00    +0.149 C 
BRANCH  58  60
ATOM     59  C   LYS A   1      -4.889  -8.411 -14.987  0.00  0.00    +0.238 C 
ATOM     60  N   MET A   2      -5.851  -7.942 -14.164  0.00  0.00    -0.297 N 
ATOM     61  H   MET A   2      -6.776  -7.705 -14.576  0.00  0.00    +0.150 HD
ATOM     62  O   LYS A   1      -3.728  -8.523 -14.548  0.00  0.00    -0.274 OA
BRANCH  59  63
ATOM     63  CA  LYS A   1      -5.303  -8.789 -16.398  0.00  0.00    +0.145 C 
BRANCH  63  64
ATOM     64  N   LYS A   1      -4.133  -8.857 -17.312  0.00  0.00    -0.238 NA
ATOM     65  H   LYS A   1      -3.211  -9.133 -16.918  0.00  0.00    +0.142 HD
ENDBRANCH  63  64
BRANCH  63  66
ATOM     66  CB  LYS A   1      -5.918 -10.187 -16.391  0.00  0.00    +0.026 C 
BRANCH  66  67
ATOM     67  CG  LYS A   1      -6.792 -10.472 -17.587  0.00  0.00    -0.000 C 
BRANCH  67  68
ATOM     68  CD  LYS A   1      -7.998 -11.315 -17.043  0.00  0.00    -0.024 C 
BRANCH  68  69
ATOM     69  CE  LYS A   1      -9.341 -11.042 -17.739  0.00  0.00    -0.086 C 
BRANCH  69  70
ATOM     70  NZ  LYS A   1      -9.390 -11.917 -18.902  0.00  0.00    +0.380 N 
ATOM     71  HZ1 LYS A   1      -9.326 -12.908 -18.592  0.00  0.00    -0.089 HD
ATOM     72  HZ2 LYS A   1     -10.286 -11.768 -19.409  0.00  0.00    -0.089 HD
ATOM     73  HZ3 LYS A   1      -8.593 -11.698 -19.533  0.00  0.00    -0.089 HD
ENDBRANCH  69  70
ENDBRANCH  68  69
ENDBRANCH  67  68
ENDBRANCH  66  67
ENDBRANCH  63  66
ENDBRANCH  59  63
ENDBRANCH  58  60
BRANCH  58  74
ATOM     74  CB  MET A   2      -6.127  -6.381 -12.271  0.00  0.00    +0.041 C 
BRANCH  74  75
ATOM     75  CG  MET A   2      -6.233  -5.416 -13.387  0.00  0.00    +0.060 C 
BRANCH  75  76
ATOM     76  SD  MET A   2      -4.513  -5.015 -13.392  0.00  0.00    -0.139 S 
ATOM     77  CE  MET A   2      -4.347  -3.859 -11.991  0.00  0.00    +0.069 C 
ENDBRANCH  75  76
ENDBRANCH  74  75
ENDBRANCH  58  74
ENDBRANCH  54  58
ENDBRANCH  53  55
BRANCH  53  78
ATOM     78  CB  VAL A   3      -6.995 -11.139  -9.702  0.00  0.00    +0.027 C 
ATOM     79  CG2 VAL A   3      -5.432 -11.251  -9.894  0.00  0.00    +0.002 C 
ATOM     80  CG1 VAL A   3      -7.533 -11.851 -10.845  0.00  0.00    +0.002 C 
ENDBRANCH  53  78
ENDBRANCH  49  53
ENDBRANCH  48  50
ENDBRANCH  44  48
ENDBRANCH  43  45
ENDBRANCH   1  43
TORSDOF 35
REMARK  Name = ../refined-set-2016/4ye3/4ye3_pocket.pdb
REMARK  232 active torsions:
REMARK  status: ('A' for Active; 'I' for Inactive)
REMARK    1  A    between atoms: _1  and  _3
REMARK    2  A    between atoms: _3  and  _4
REMARK    3  A    between atoms: _3  and  _6
REMARK    4  A    between atoms: _6  and  _7
REMARK    5  A    between atoms: _7  and  _8
REMARK    6  A    between atoms: _8  and  _9
REMARK    7  A    between atoms: _18  and  _20
REMARK    8  A    between atoms: _20  and  _21
REMARK    9  A    between atoms: _20  and  _23
REMARK   10  A    between atoms: _23  and  _24
REMARK   11  A    between atoms: _30  and  _32
REMARK   12  A    between atoms: _32  and  _33
REMARK   13  A    between atoms: _32  and  _35
REMARK   14  A    between atoms: _35  and  _36
REMARK   15  A    between atoms: _39  and  _41
REMARK   16  A    between atoms: _41  and  _42
REMARK   17  A    between atoms: _41  and  _44
REMARK   18  A    between atoms: _44  and  _45
REMARK   19  A    between atoms: _48  and  _50
REMARK   20  A    between atoms: _50  and  _51
REMARK   21  A    between atoms: _50  and  _53
REMARK   22  A    between atoms: _53  and  _54
REMARK   23  A    between atoms: _57  and  _59
REMARK   24  A    between atoms: _59  and  _60
REMARK   25  A    between atoms: _59  and  _62
REMARK   26  A    between atoms: _62  and  _63
REMARK   27  A    between atoms: _66  and  _68
REMARK   28  A    between atoms: _68  and  _69
REMARK   29  A    between atoms: _71  and  _73
REMARK   30  A    between atoms: _73  and  _74
REMARK   31  A    between atoms: _77  and  _79
REMARK   32  A    between atoms: _79  and  _80
REMARK   33  A    between atoms: _79  and  _82
REMARK   34  A    between atoms: _82  and  _83
REMARK   35  A    between atoms: _86  and  _88
REMARK   36  A    between atoms: _88  and  _89
REMARK   37  A    between atoms: _88  and  _91
REMARK   38  A    between atoms: _91  and  _92
REMARK   39  A    between atoms: _97  and  _99
REMARK   40  A    between atoms: _99  and  _100
REMARK   41  A    between atoms: _99  and  _102
REMARK   42  A    between atoms: _102  and  _103
REMARK   43  A    between atoms: _106  and  _108
REMARK   44  A    between atoms: _108  and  _109
REMARK   45  A    between atoms: _108  and  _111
REMARK   46  A    between atoms: _111  and  _112
REMARK   47  A    between atoms: _115  and  _117
REMARK   48  A    between atoms: _117  and  _118
REMARK   49  A    between atoms: _117  and  _120
REMARK   50  A    between atoms: _120  and  _121
REMARK   51  A    between atoms: _121  and  _122
REMARK   52  A    between atoms: _122  and  _123
REMARK   53  A    between atoms: _123  and  _124
REMARK   54  A    between atoms: _128  and  _130
REMARK   55  A    between atoms: _130  and  _131
REMARK   56  A    between atoms: _130  and  _133
REMARK   57  A    between atoms: _133  and  _134
REMARK   58  A    between atoms: _134  and  _135
REMARK   59  A    between atoms: _137  and  _139
REMARK   60  A    between atoms: _139  and  _140
REMARK   61  A    between atoms: _139  and  _142
REMARK   62  A    between atoms: _145  and  _147
REMARK   63  A    between atoms: _147  and  _148
REMARK   64  A    between atoms: _150  and  _152
REMARK   65  A    between atoms: _152  and  _153
REMARK   66  A    between atoms: _155  and  _157
REMARK   67  A    between atoms: _157  and  _158
REMARK   68  A    between atoms: _157  and  _160
REMARK   69  A    between atoms: _160  and  _161
REMARK   70  A    between atoms: _164  and  _166
REMARK   71  A    between atoms: _166  and  _167
REMARK   72  A    between atoms: _169  and  _171
REMARK   73  A    between atoms: _171  and  _172
REMARK   74  A    between atoms: _174  and  _176
REMARK   75  A    between atoms: _176  and  _177
REMARK   76  A    between atoms: _176  and  _179
REMARK   77  A    between atoms: _179  and  _180
REMARK   78  A    between atoms: _186  and  _188
REMARK   79  A    between atoms: _188  and  _189
REMARK   80  A    between atoms: _188  and  _191
REMARK   81  A    between atoms: _191  and  _192
REMARK   82  A    between atoms: _195  and  _197
REMARK   83  A    between atoms: _197  and  _198
REMARK   84  A    between atoms: _197  and  _200
REMARK   85  A    between atoms: _200  and  _201
REMARK   86  A    between atoms: _204  and  _206
REMARK   87  A    between atoms: _206  and  _207
REMARK   88  A    between atoms: _206  and  _209
REMARK   89  A    between atoms: _209  and  _210
REMARK   90  A    between atoms: _214  and  _215
REMARK   91  A    between atoms: _220  and  _222
REMARK   92  A    between atoms: _222  and  _223
REMARK   93  A    between atoms: _222  and  _225
REMARK   94  A    between atoms: _228  and  _230
REMARK   95  A    between atoms: _230  and  _231
REMARK   96  A    between atoms: _230  and  _233
REMARK   97  A    between atoms: _233  and  _234
REMARK   98  A    between atoms: _239  and  _241
REMARK   99  A    between atoms: _241  and  _242
REMARK  100  A    between atoms: _241  and  _244
REMARK  101  A    between atoms: _247  and  _249
REMARK  102  A    between atoms: _249  and  _250
REMARK  103  A    between atoms: _249  and  _252
REMARK  104  A    between atoms: _252  and  _253
REMARK  105  A    between atoms: _256  and  _258
REMARK  106  A    between atoms: _258  and  _259
REMARK  107  A    between atoms: _261  and  _263
REMARK  108  A    between atoms: _263  and  _264
REMARK  109  A    between atoms: _263  and  _266
REMARK  110  A    between atoms: _266  and  _267
REMARK  111  A    between atoms: _267  and  _268
REMARK  112  A    between atoms: _268  and  _269
REMARK  113  A    between atoms: _278  and  _280
REMARK  114  A    between atoms: _280  and  _281
REMARK  115  A    between atoms: _280  and  _283
REMARK  116  A    between atoms: _283  and  _284
REMARK  117  A    between atoms: _287  and  _289
REMARK  118  A    between atoms: _289  and  _290
REMARK  119  A    between atoms: _289  and  _292
REMARK  120  A    between atoms: _292  and  _293
REMARK  121  A    between atoms: _293  and  _294
REMARK  122  A    between atoms: _294  and  _295
REMARK  123  A    between atoms: _304  and  _306
REMARK  124  A    between atoms: _306  and  _307
REMARK  125  A    between atoms: _306  and  _309
REMARK  126  A    between atoms: _309  and  _310
REMARK  127  A    between atoms: _316  and  _318
REMARK  128  A    between atoms: _318  and  _319
REMARK  129  A    between atoms: _318  and  _321
REMARK  130  A    between atoms: _321  and  _322
REMARK  131  A    between atoms: _325  and  _327
REMARK  132  A    between atoms: _327  and  _328
REMARK  133  A    between atoms: _327  and  _330
REMARK  134  A    between atoms: _330  and  _331
REMARK  135  A    between atoms: _334  and  _336
REMARK  136  A    between atoms: _336  and  _337
REMARK  137  A    between atoms: _336  and  _339
REMARK  138  A    between atoms: _339  and  _340
REMARK  139  A    between atoms: _343  and  _345
REMARK  140  A    between atoms: _345  and  _346
REMARK  141  A    between atoms: _345  and  _348
REMARK  142  A    between atoms: _348  and  _349
REMARK  143  A    between atoms: _352  and  _354
REMARK  144  A    between atoms: _354  and  _355
REMARK  145  A    between atoms: _357  and  _359
REMARK  146  A    between atoms: _359  and  _360
REMARK  147  A    between atoms: _363  and  _365
REMARK  148  A    between atoms: _365  and  _366
REMARK  149  A    between atoms: _365  and  _368
REMARK  150  A    between atoms: _368  and  _369
REMARK  151  A    between atoms: _372  and  _374
REMARK  152  A    between atoms: _374  and  _375
REMARK  153  A    between atoms: _374  and  _377
REMARK  154  A    between atoms: _377  and  _378
REMARK  155  A    between atoms: _383  and  _385
REMARK  156  A    between atoms: _385  and  _386
REMARK  157  A    between atoms: _385  and  _388
REMARK  158  A    between atoms: _388  and  _389
REMARK  159  A    between atoms: _392  and  _394
REMARK  160  A    between atoms: _394  and  _395
REMARK  161  A    between atoms: _394  and  _397
REMARK  162  A    between atoms: _397  and  _398
REMARK  163  A    between atoms: _401  and  _403
REMARK  164  A    between atoms: _403  and  _404
REMARK  165  A    between atoms: _403  and  _406
REMARK  166  A    between atoms: _406  and  _407
REMARK  167  A    between atoms: _407  and  _408
REMARK  168  A    between atoms: _408  and  _409
REMARK  169  A    between atoms: _409  and  _410
REMARK  170  A    between atoms: _414  and  _416
REMARK  171  A    between atoms: _416  and  _417
REMARK  172  A    between atoms: _416  and  _419
REMARK  173  A    between atoms: _419  and  _420
REMARK  174  A    between atoms: _420  and  _421
REMARK  175  A    between atoms: _423  and  _425
REMARK  176  A    between atoms: _425  and  _426
REMARK  177  A    between atoms: _425  and  _428
REMARK  178  A    between atoms: _431  and  _433
REMARK  179  A    between atoms: _433  and  _434
REMARK  180  A    between atoms: _436  and  _438
REMARK  181  A    between atoms: _438  and  _439
REMARK  182  A    between atoms: _441  and  _443
REMARK  183  A    between atoms: _443  and  _444
REMARK  184  A    between atoms: _443  and  _446
REMARK  185  A    between atoms: _446  and  _447
REMARK  186  A    between atoms: _450  and  _452
REMARK  187  A    between atoms: _452  and  _453
REMARK  188  A    between atoms: _455  and  _457
REMARK  189  A    between atoms: _457  and  _458
REMARK  190  A    between atoms: _460  and  _462
REMARK  191  A    between atoms: _462  and  _463
REMARK  192  A    between atoms: _462  and  _465
REMARK  193  A    between atoms: _465  and  _466
REMARK  194  A    between atoms: _472  and  _474
REMARK  195  A    between atoms: _474  and  _475
REMARK  196  A    between atoms: _474  and  _477
REMARK  197  A    between atoms: _477  and  _478
REMARK  198  A    between atoms: _481  and  _483
REMARK  199  A    between atoms: _483  and  _484
REMARK  200  A    between atoms: _483  and  _486
REMARK  201  A    between atoms: _486  and  _487
REMARK  202  A    between atoms: _490  and  _492
REMARK  203  A    between atoms: _492  and  _493
REMARK  204  A    between atoms: _492  and  _495
REMARK  205  A    between atoms: _495  and  _496
REMARK  206  A    between atoms: _500  and  _501
REMARK  207  A    between atoms: _506  and  _508
REMARK  208  A    between atoms: _508  and  _509
REMARK  209  A    between atoms: _508  and  _511
REMARK  210  A    between atoms: _514  and  _516
REMARK  211  A    between atoms: _516  and  _517
REMARK  212  A    between atoms: _516  and  _519
REMARK  213  A    between atoms: _519  and  _520
REMARK  214  A    between atoms: _525  and  _527
REMARK  215  A    between atoms: _527  and  _528
REMARK  216  A    between atoms: _527  and  _530
REMARK  217  A    between atoms: _533  and  _535
REMARK  218  A    between atoms: _535  and  _536
REMARK  219  A    between atoms: _535  and  _538
REMARK  220  A    between atoms: _538  and  _539
REMARK  221  A    between atoms: _542  and  _544
REMARK  222  A    between atoms: _544  and  _545
REMARK  223  A    between atoms: _547  and  _549
REMARK  224  A    between atoms: _549  and  _550
REMARK  225  A    between atoms: _549  and  _552
REMARK  226  A    between atoms: _552  and  _553
REMARK  227  A    between atoms: _553  and  _554
REMARK  228  A    between atoms: _554  and  _555
REMARK  229  A    between atoms: _564  and  _566
REMARK  230  A    between atoms: _566  and  _567
REMARK  231  A    between atoms: _566  and  _569
REMARK  232  A    between atoms: _569  and  _570
REMARK                            x       y       z     vdW  Elec       q    Type
REMARK                         _______ _______ _______ _____ _____    ______ ____
ROOT
ATOM      1  CA  LEU A   1      -3.399 -16.606 -14.718  0.00  0.00    +0.133 C 
ENDROOT
BRANCH   1   2
ATOM      2  N   LEU A   1      -4.070 -17.866 -14.947  0.00  0.00    -0.239 NA
ATOM      3  H   LEU A   1      -4.645 -18.294 -14.193  0.00  0.00    +0.142 HD
ENDBRANCH   1   2
BRANCH   1   4
ATOM      4  C   LEU A   1      -2.051 -16.815 -14.054  0.00  0.00    +0.224 C 
ATOM      5  O   LEU A   1      -1.905 -17.717 -13.214  0.00  0.00    -0.287 OA
ENDBRANCH   1   4
BRANCH   1   6
ATOM      6  CB  LEU A   1      -4.235 -15.747 -13.754  0.00  0.00    +0.025 C 
BRANCH   6   7
ATOM      7  CG  LEU A   1      -5.694 -15.549 -14.215  0.00  0.00    +0.002 C 
ATOM      8  CD2 LEU A   1      -6.459 -14.718 -13.208  0.00  0.00    +0.000 C 
ATOM      9  CD1 LEU A   1      -5.733 -14.964 -15.620  0.00  0.00    +0.000 C 
ENDBRANCH   6   7
ENDBRANCH   1   6
TORSDOF 4
REMARK  Name = ../refined-set-2016/4ye3/4ye3_pocket.pdb
REMARK  232 active torsions:
REMARK  status: ('A' for Active; 'I' for Inactive)
REMARK    1  A    between atoms: _1  and  _3
REMARK    2  A    between atoms: _3  and  _4
REMARK    3  A    between atoms: _3  and  _6
REMARK    4  A    between atoms: _6  and  _7
REMARK    5  A    between atoms: _7  and  _8
REMARK    6  A    between atoms: _8  and  _9
REMARK    7  A    between atoms: _18  and  _20
REMARK    8  A    between atoms: _20  and  _21
REMARK    9  A    between atoms: _20  and  _23
REMARK   10  A    between atoms: _23  and  _24
REMARK   11  A    between atoms: _30  and  _32
REMARK   12  A    between atoms: _32  and  _33
REMARK   13  A    between atoms: _32  and  _35
REMARK   14  A    between atoms: _35  and  _36
REMARK   15  A    between atoms: _39  and  _41
REMARK   16  A    between atoms: _41  and  _42
REMARK   17  A    between atoms: _41  and  _44
REMARK   18  A    between atoms: _44  and  _45
REMARK   19  A    between atoms: _48  and  _50
REMARK   20  A    between atoms: _50  and  _51
REMARK   21  A    between atoms: _50  and  _53
REMARK   22  A    between atoms: _53  and  _54
REMARK   23  A    between atoms: _57  and  _59
REMARK   24  A    between atoms: _59  and  _60
REMARK   25  A    between atoms: _59  and  _62
REMARK   26  A    between atoms: _62  and  _63
REMARK   27  A    between atoms: _66  and  _68
REMARK   28  A    between atoms: _68  and  _69
REMARK   29  A    between atoms: _71  and  _73
REMARK   30  A    between atoms: _73  and  _74
REMARK   31  A    between atoms: _77  and  _79
REMARK   32  A    between atoms: _79  and  _80
REMARK   33  A    between atoms: _79  and  _82
REMARK   34  A    between atoms: _82  and  _83
REMARK   35  A    between atoms: _86  and  _88
REMARK   36  A    between atoms: _88  and  _89
REMARK   37  A    between atoms: _88  and  _91
REMARK   38  A    between atoms: _91  and  _92
REMARK   39  A    between atoms: _97  and  _99
REMARK   40  A    between atoms: _99  and  _100
REMARK   41  A    between atoms: _99  and  _102
REMARK   42  A    between atoms: _102  and  _103
REMARK   43  A    between atoms: _106  and  _108
REMARK   44  A    between atoms: _108  and  _109
REMARK   45  A    between atoms: _108  and  _111
REMARK   46  A    between atoms: _111  and  _112
REMARK   47  A    between atoms: _115  and  _117
REMARK   48  A    between atoms: _117  and  _118
REMARK   49  A    between atoms: _117  and  _120
REMARK   50  A    between atoms: _120  and  _121
REMARK   51  A    between atoms: _121  and  _122
REMARK   52  A    between atoms: _122  and  _123
REMARK   53  A    between atoms: _123  and  _124
REMARK   54  A    between atoms: _128  and  _130
REMARK   55  A    between atoms: _130  and  _131
REMARK   56  A    between atoms: _130  and  _133
REMARK   57  A    between atoms: _133  and  _134
REMARK   58  A    between atoms: _134  and  _135
REMARK   59  A    between atoms: _137  and  _139
REMARK   60  A    between atoms: _139  and  _140
REMARK   61  A    between atoms: _139  and  _142
REMARK   62  A    between atoms: _145  and  _147
REMARK   63  A    between atoms: _147  and  _148
REMARK   64  A    between atoms: _150  and  _152
REMARK   65  A    between atoms: _152  and  _153
REMARK   66  A    between atoms: _155  and  _157
REMARK   67  A    between atoms: _157  and  _158
REMARK   68  A    between atoms: _157  and  _160
REMARK   69  A    between atoms: _160  and  _161
REMARK   70  A    between atoms: _164  and  _166
REMARK   71  A    between atoms: _166  and  _167
REMARK   72  A    between atoms: _169  and  _171
REMARK   73  A    between atoms: _171  and  _172
REMARK   74  A    between atoms: _174  and  _176
REMARK   75  A    between atoms: _176  and  _177
REMARK   76  A    between atoms: _176  and  _179
REMARK   77  A    between atoms: _179  and  _180
REMARK   78  A    between atoms: _186  and  _188
REMARK   79  A    between atoms: _188  and  _189
REMARK   80  A    between atoms: _188  and  _191
REMARK   81  A    between atoms: _191  and  _192
REMARK   82  A    between atoms: _195  and  _197
REMARK   83  A    between atoms: _197  and  _198
REMARK   84  A    between atoms: _197  and  _200
REMARK   85  A    between atoms: _200  and  _201
REMARK   86  A    between atoms: _204  and  _206
REMARK   87  A    between atoms: _206  and  _207
REMARK   88  A    between atoms: _206  and  _209
REMARK   89  A    between atoms: _209  and  _210
REMARK   90  A    between atoms: _214  and  _215
REMARK   91  A    between atoms: _220  and  _222
REMARK   92  A    between atoms: _222  and  _223
REMARK   93  A    between atoms: _222  and  _225
REMARK   94  A    between atoms: _228  and  _230
REMARK   95  A    between atoms: _230  and  _231
REMARK   96  A    between atoms: _230  and  _233
REMARK   97  A    between atoms: _233  and  _234
REMARK   98  A    between atoms: _239  and  _241
REMARK   99  A    between atoms: _241  and  _242
REMARK  100  A    between atoms: _241  and  _244
REMARK  101  A    between atoms: _247  and  _249
REMARK  102  A    between atoms: _249  and  _250
REMARK  103  A    between atoms: _249  and  _252
REMARK  104  A    between atoms: _252  and  _253
REMARK  105  A    between atoms: _256  and  _258
REMARK  106  A    between atoms: _258  and  _259
REMARK  107  A    between atoms: _261  and  _263
REMARK  108  A    between atoms: _263  and  _264
REMARK  109  A    between atoms: _263  and  _266
REMARK  110  A    between atoms: _266  and  _267
REMARK  111  A    between atoms: _267  and  _268
REMARK  112  A    between atoms: _268  and  _269
REMARK  113  A    between atoms: _278  and  _280
REMARK  114  A    between atoms: _280  and  _281
REMARK  115  A    between atoms: _280  and  _283
REMARK  116  A    between atoms: _283  and  _284
REMARK  117  A    between atoms: _287  and  _289
REMARK  118  A    between atoms: _289  and  _290
REMARK  119  A    between atoms: _289  and  _292
REMARK  120  A    between atoms: _292  and  _293
REMARK  121  A    between atoms: _293  and  _294
REMARK  122  A    between atoms: _294  and  _295
REMARK  123  A    between atoms: _304  and  _306
REMARK  124  A    between atoms: _306  and  _307
REMARK  125  A    between atoms: _306  and  _309
REMARK  126  A    between atoms: _309  and  _310
REMARK  127  A    between atoms: _316  and  _318
REMARK  128  A    between atoms: _318  and  _319
REMARK  129  A    between atoms: _318  and  _321
REMARK  130  A    between atoms: _321  and  _322
REMARK  131  A    between atoms: _325  and  _327
REMARK  132  A    between atoms: _327  and  _328
REMARK  133  A    between atoms: _327  and  _330
REMARK  134  A    between atoms: _330  and  _331
REMARK  135  A    between atoms: _334  and  _336
REMARK  136  A    between atoms: _336  and  _337
REMARK  137  A    between atoms: _336  and  _339
REMARK  138  A    between atoms: _339  and  _340
REMARK  139  A    between atoms: _343  and  _345
REMARK  140  A    between atoms: _345  and  _346
REMARK  141  A    between atoms: _345  and  _348
REMARK  142  A    between atoms: _348  and  _349
REMARK  143  A    between atoms: _352  and  _354
REMARK  144  A    between atoms: _354  and  _355
REMARK  145  A    between atoms: _357  and  _359
REMARK  146  A    between atoms: _359  and  _360
REMARK  147  A    between atoms: _363  and  _365
REMARK  148  A    between atoms: _365  and  _366
REMARK  149  A    between atoms: _365  and  _368
REMARK  150  A    between atoms: _368  and  _369
REMARK  151  A    between atoms: _372  and  _374
REMARK  152  A    between atoms: _374  and  _375
REMARK  153  A    between atoms: _374  and  _377
REMARK  154  A    between atoms: _377  and  _378
REMARK  155  A    between atoms: _383  and  _385
REMARK  156  A    between atoms: _385  and  _386
REMARK  157  A    between atoms: _385  and  _388
REMARK  158  A    between atoms: _388  and  _389
REMARK  159  A    between atoms: _392  and  _394
REMARK  160  A    between atoms: _394  and  _395
REMARK  161  A    between atoms: _394  and  _397
REMARK  162  A    between atoms: _397  and  _398
REMARK  163  A    between atoms: _401  and  _403
REMARK  164  A    between atoms: _403  and  _404
REMARK  165  A    between atoms: _403  and  _406
REMARK  166  A    between atoms: _406  and  _407
REMARK  167  A    between atoms: _407  and  _408
REMARK  168  A    between atoms: _408  and  _409
REMARK  169  A    between atoms: _409  and  _410
REMARK  170  A    between atoms: _414  and  _416
REMARK  171  A    between atoms: _416  and  _417
REMARK  172  A    between atoms: _416  and  _419
REMARK  173  A    between atoms: _419  and  _420
REMARK  174  A    between atoms: _420  and  _421
REMARK  175  A    between atoms: _423  and  _425
REMARK  176  A    between atoms: _425  and  _426
REMARK  177  A    between atoms: _425  and  _428
REMARK  178  A    between atoms: _431  and  _433
REMARK  179  A    between atoms: _433  and  _434
REMARK  180  A    between atoms: _436  and  _438
REMARK  181  A    between atoms: _438  and  _439
REMARK  182  A    between atoms: _441  and  _443
REMARK  183  A    between atoms: _443  and  _444
REMARK  184  A    between atoms: _443  and  _446
REMARK  185  A    between atoms: _446  and  _447
REMARK  186  A    between atoms: _450  and  _452
REMARK  187  A    between atoms: _452  and  _453
REMARK  188  A    between atoms: _455  and  _457
REMARK  189  A    between atoms: _457  and  _458
REMARK  190  A    between atoms: _460  and  _462
REMARK  191  A    between atoms: _462  and  _463
REMARK  192  A    between atoms: _462  and  _465
REMARK  193  A    between atoms: _465  and  _466
REMARK  194  A    between atoms: _472  and  _474
REMARK  195  A    between atoms: _474  and  _475
REMARK  196  A    between atoms: _474  and  _477
REMARK  197  A    between atoms: _477  and  _478
REMARK  198  A    between atoms: _481  and  _483
REMARK  199  A    between atoms: _483  and  _484
REMARK  200  A    between atoms: _483  and  _486
REMARK  201  A    between atoms: _486  and  _487
REMARK  202  A    between atoms: _490  and  _492
REMARK  203  A    between atoms: _492  and  _493
REMARK  204  A    between atoms: _492  and  _495
REMARK  205  A    between atoms: _495  and  _496
REMARK  206  A    between atoms: _500  and  _501
REMARK  207  A    between atoms: _506  and  _508
REMARK  208  A    between atoms: _508  and  _509
REMARK  209  A    between atoms: _508  and  _511
REMARK  210  A    between atoms: _514  and  _516
REMARK  211  A    between atoms: _516  and  _517
REMARK  212  A    between atoms: _516  and  _519
REMARK  213  A    between atoms: _519  and  _520
REMARK  214  A    between atoms: _525  and  _527
REMARK  215  A    between atoms: _527  and  _528
REMARK  216  A    between atoms: _527  and  _530
REMARK  217  A    between atoms: _533  and  _535
REMARK  218  A    between atoms: _535  and  _536
REMARK  219  A    between atoms: _535  and  _538
REMARK  220  A    between atoms: _538  and  _539
REMARK  221  A    between atoms: _542  and  _544
REMARK  222  A    between atoms: _544  and  _545
REMARK  223  A    between atoms: _547  and  _549
REMARK  224  A    between atoms: _549  and  _550
REMARK  225  A    between atoms: _549  and  _552
REMARK  226  A    between atoms: _552  and  _553
REMARK  227  A    between atoms: _553  and  _554
REMARK  228  A    between atoms: _554  and  _555
REMARK  229  A    between atoms: _564  and  _566
REMARK  230  A    between atoms: _566  and  _567
REMARK  231  A    between atoms: _566  and  _569
REMARK  232  A    between atoms: _569  and  _570
REMARK                            x       y       z     vdW  Elec       q    Type
REMARK                         _______ _______ _______ _____ _____    ______ ____
ROOT
ATOM      1  C   VAL A   5      -5.611 -22.184  -7.622  0.00  0.00    +0.241 C 
ATOM      2  N   ILE A   6      -6.474 -23.126  -7.344  0.00  0.00    -0.297 N 
ATOM      3  H   ILE A   6      -6.528 -23.467  -6.363  0.00  0.00    +0.150 HD
ATOM      4  O   VAL A   5      -5.319 -21.773  -8.766  0.00  0.00    -0.273 OA
ENDROOT
BRANCH   2   5
ATOM      5  CA  ILE A   6      -7.375 -23.732  -8.341  0.00  0.00    +0.149 C 
BRANCH   5   6
ATOM      6  C   ILE A   6      -8.721 -23.109  -8.126  0.00  0.00    +0.241 C 
ATOM      7  O   ILE A   6      -9.350 -23.326  -7.064  0.00  0.00    -0.273 OA
ATOM      8  N   GLY A   7      -9.210 -22.340  -9.096  0.00  0.00    -0.295 N 
ATOM      9  H   GLY A   7      -8.676 -22.197  -9.977  0.00  0.00    +0.150 HD
BRANCH   8  10
ATOM     10  CA  GLY A   7     -10.514 -21.697  -8.902  0.00  0.00    +0.176 C 
BRANCH  10  11
ATOM     11  C   GLY A   7     -11.644 -22.440  -9.535  0.00  0.00    +0.243 C 
ATOM     12  N   ARG A   8     -12.813 -21.817  -9.505  0.00  0.00    -0.297 N 
ATOM     13  H   ARG A   8     -12.866 -20.846  -9.136  0.00  0.00    +0.150 HD
ATOM     14  O   GLY A   7     -11.477 -23.560 -10.042  0.00  0.00    -0.273 OA
BRANCH  12  15
ATOM     15  CA  ARG A   8     -14.021 -22.467  -9.979  0.00  0.00    +0.149 C 
BRANCH  15  16
ATOM     16  C   ARG A   8     -13.970 -22.752 -11.485  0.00  0.00    +0.241 C 
ATOM     17  O   ARG A   8     -14.628 -23.749 -11.917  0.00  0.00    -0.273 OA
ATOM     18  N   ASP A   9     -13.261 -21.928 -12.247  0.00  0.00    -0.298 N 
ATOM     19  H   ASP A   9     -12.805 -21.086 -11.841  0.00  0.00    +0.150 HD
BRANCH  18  20
ATOM     20  CA  ASP A   9     -13.136 -22.237 -13.683  0.00  0.00    +0.148 C 
BRANCH  20  21
ATOM     21  C   ASP A   9     -12.529 -23.607 -13.933  0.00  0.00    +0.227 C 
ATOM     22  O   ASP A   9     -12.905 -24.268 -14.851  0.00  0.00    -0.286 OA
ENDBRANCH  20  21
BRANCH  20  23
ATOM     23  CB  ASP A   9     -12.361 -21.125 -14.338  0.00  0.00    +0.142 C 
BRANCH  23  24
ATOM     24  CG  ASP A   9     -10.955 -20.879 -13.754  0.00  0.00    +0.367 C 
ATOM     25  OD2 ASP A   9     -10.574 -21.463 -12.705  0.00  0.00    -0.246 OA
ATOM     26  OD1 ASP A   9     -10.210 -20.017 -14.314  0.00  0.00    -0.246 OA
ENDBRANCH  23  24
ENDBRANCH  20  23
ENDBRANCH  18  20
ENDBRANCH  15  16
BRANCH  15  27
ATOM     27  CB  ARG A   8     -15.252 -21.629  -9.633  0.00  0.00    +0.033 C 
BRANCH  27  28
ATOM     28  CG  ARG A   8     -15.535 -21.537  -8.162  0.00  0.00    +0.045 C 
BRANCH  28  29
ATOM     29  CD  ARG A   8     -16.836 -20.848  -7.808  0.00  0.00    +0.174 C 
BRANCH  29  30
ATOM     30  NE  ARG A   8     -16.890 -19.492  -8.334  0.00  0.00    -0.265 N 
ATOM     31  HE  ARG A   8     -16.471 -18.750  -7.738  0.00  0.00    +0.259 HD
ATOM     32  CZ  ARG A   8     -17.420 -19.089  -9.504  0.00  0.00    +0.342 C 
ATOM     33  NH2 ARG A   8     -17.284 -17.817  -9.851  0.00  0.00    -0.292 N 
ATOM     34 HH21 ARG A   8     -16.778 -17.158  -9.225  0.00  0.00    +0.255 HD
ATOM     35 HH22 ARG A   8     -17.683 -17.477 -10.749  0.00  0.00    +0.255 HD
ATOM     36  NH1 ARG A   8     -18.187 -19.931 -10.248  0.00  0.00    -0.292 N 
ATOM     37 HH11 ARG A   8     -18.370 -20.899  -9.915  0.00  0.00    +0.255 HD
ATOM     38 HH12 ARG A   8     -18.590 -19.607 -11.150  0.00  0.00    +0.255 HD
ENDBRANCH  29  30
ENDBRANCH  28  29
ENDBRANCH  27  28
ENDBRANCH  15  27
ENDBRANCH  12  15
ENDBRANCH  10  11
ENDBRANCH   8  10
ENDBRANCH   5   6
BRANCH   5  39
ATOM     39  CB  ILE A   6      -7.467 -25.256  -8.244  0.00  0.00    +0.027 C 
ATOM     40  CG2 ILE A   6      -8.386 -25.823  -9.289  0.00  0.00    +0.002 C 
BRANCH  39  41
ATOM     41  CG1 ILE A   6      -6.069 -25.903  -8.216  0.00  0.00    +0.002 C 
ATOM     42  CD1 ILE A   6      -5.210 -25.539  -9.441  0.00  0.00    +0.000 C 
ENDBRANCH  39  41
ENDBRANCH   5  39
ENDBRANCH   2   5
BRANCH   1  43
ATOM     43  CA  VAL A   5      -5.025 -21.550  -6.363  0.00  0.00    +0.149 C 
BRANCH  43  46
ATOM     44  C   ASN A   4      -2.715 -21.548  -5.789  0.00  0.00    +0.241 C 
ATOM     45  O   ASN A   4      -2.948 -22.240  -4.757  0.00  0.00    -0.273 OA
ATOM     46  N   VAL A   5      -3.667 -21.089  -6.589  0.00  0.00    -0.297 N 
ATOM     47  H   VAL A   5      -3.448 -20.420  -7.354  0.00  0.00    +0.150 HD
BRANCH  44  48
ATOM     48  CA  ASN A   4      -1.270 -21.138  -6.084  0.00  0.00    +0.158 C 
BRANCH  48  51
ATOM     49  C   VAL A   3      -1.022 -19.769  -4.123  0.00  0.00    +0.241 C 
ATOM     50  O   VAL A   3      -1.939 -19.031  -4.543  0.00  0.00    -0.273 OA
ATOM     51  N   ASN A   4      -0.597 -20.815  -4.815  0.00  0.00    -0.297 N 
ATOM     52  H   ASN A   4       0.194 -21.395  -4.470  0.00  0.00    +0.150 HD
BRANCH  49  53
ATOM     53  CA  VAL A   3      -0.306 -19.502  -2.760  0.00  0.00    +0.149 C 
BRANCH  53  56
ATOM     54  C   PRO A   2       1.138 -17.592  -2.197  0.00  0.00    +0.241 C 
ATOM     55  O   PRO A   2       1.986 -18.264  -1.644  0.00  0.00    -0.273 OA
ATOM     56  N   VAL A   3       0.042 -18.089  -2.788  0.00  0.00    -0.297 N 
ATOM     57  H   VAL A   3      -0.590 -17.433  -3.291  0.00  0.00    +0.150 HD
BRANCH  54  60
ATOM     58  C   THR A   1       0.947 -15.585  -4.561  0.00  0.00    +0.244 C 
ATOM     59  N   PRO A   2       0.494 -15.426  -3.289  0.00  0.00    -0.272 N 
ATOM     60  CA  PRO A   2       1.285 -16.088  -2.235  0.00  0.00    +0.152 C 
ATOM     61  CB  PRO A   2       0.687 -15.507  -0.944  0.00  0.00    +0.031 C 
ATOM     62  CG  PRO A   2       0.064 -14.362  -1.343  0.00  0.00    +0.024 C 
ATOM     63  CD  PRO A   2      -0.497 -14.538  -2.713  0.00  0.00    +0.094 C 
ATOM     64  O   THR A   1       1.911 -16.283  -4.830  0.00  0.00    -0.273 OA
BRANCH  58  65
ATOM     65  CA  THR A   1       0.193 -14.864  -5.687  0.00  0.00    +0.172 C 
BRANCH  65  66
ATOM     66  CB  THR A   1      -0.906 -15.824  -6.277  0.00  0.00    +0.135 C 
ATOM     67  CG2 THR A   1      -0.328 -17.042  -6.998  0.00  0.00    +0.034 C 
BRANCH  66  68
ATOM     68  OG1 THR A   1      -1.730 -16.244  -5.170  0.00  0.00    -0.383 OA
ATOM     69  HG1 THR A   1      -2.438 -16.853  -5.499  0.00  0.00    +0.210 HD
ENDBRANCH  66  68
ENDBRANCH  65  66
BRANCH  65  70
ATOM     70  N   THR A   1       1.130 -14.506  -6.724  0.00  0.00    -0.236 NA
ATOM     71  H   THR A   1       1.019 -14.954  -7.656  0.00  0.00    +0.142 HD
ENDBRANCH  65  70
ENDBRANCH  58  65
ENDBRANCH  54  60
ENDBRANCH  53  56
BRANCH  53  72
ATOM     72  CB  VAL A   3      -1.327 -19.769  -1.607  0.00  0.00    +0.027 C 
ATOM     73  CG2 VAL A   3      -1.726 -21.214  -1.533  0.00  0.00    +0.002 C 
ATOM     74  CG1 VAL A   3      -2.510 -19.012  -1.943  0.00  0.00    +0.002 C 
ENDBRANCH  53  72
ENDBRANCH  49  53
ENDBRANCH  48  51
BRANCH  48  75
ATOM     75  CB  ASN A   4      -0.544 -22.280  -6.810  0.00  0.00    +0.114 C 
BRANCH  75  76
ATOM     76  CG  ASN A   4       0.885 -21.902  -7.065  0.00  0.00    +0.222 C 
ATOM     77  ND2 ASN A   4       1.789 -22.872  -6.948  0.00  0.00    -0.329 N 
ATOM     78 HD21 ASN A   4       1.494 -23.824  -6.652  0.00  0.00    +0.145 HD
ATOM     79 HD22 ASN A   4       2.790 -22.678  -7.153  0.00  0.00    +0.145 HD
ATOM     80  OD1 ASN A   4       1.191 -20.742  -7.418  0.00  0.00    -0.275 OA
ENDBRANCH  75  76
ENDBRANCH  48  75
ENDBRANCH  44  48
ENDBRANCH  43  46
BRANCH  43  81
ATOM     81  CB  VAL A   5      -6.000 -20.450  -5.812  0.00  0.00    +0.027 C 
ATOM     82  CG2 VAL A   5      -5.542 -19.942  -4.462  0.00  0.00    +0.002 C 
ATOM     83  CG1 VAL A   5      -6.027 -19.285  -6.789  0.00  0.00    +0.002 C 
ENDBRANCH  43  81
ENDBRANCH   1  43
TORSDOF 31
REMARK  Name = ../refined-set-2016/4ye3/4ye3_pocket.pdb
REMARK  232 active torsions:
REMARK  status: ('A' for Active; 'I' for Inactive)
REMARK    1  A    between atoms: _1  and  _3
REMARK    2  A    between atoms: _3  and  _4
REMARK    3  A    between atoms: _3  and  _6
REMARK    4  A    between atoms: _6  and  _7
REMARK    5  A    between atoms: _7  and  _8
REMARK    6  A    between atoms: _8  and  _9
REMARK    7  A    between atoms: _18  and  _20
REMARK    8  A    between atoms: _20  and  _21
REMARK    9  A    between atoms: _20  and  _23
REMARK   10  A    between atoms: _23  and  _24
REMARK   11  A    between atoms: _30  and  _32
REMARK   12  A    between atoms: _32  and  _33
REMARK   13  A    between atoms: _32  and  _35
REMARK   14  A    between atoms: _35  and  _36
REMARK   15  A    between atoms: _39  and  _41
REMARK   16  A    between atoms: _41  and  _42
REMARK   17  A    between atoms: _41  and  _44
REMARK   18  A    between atoms: _44  and  _45
REMARK   19  A    between atoms: _48  and  _50
REMARK   20  A    between atoms: _50  and  _51
REMARK   21  A    between atoms: _50  and  _53
REMARK   22  A    between atoms: _53  and  _54
REMARK   23  A    between atoms: _57  and  _59
REMARK   24  A    between atoms: _59  and  _60
REMARK   25  A    between atoms: _59  and  _62
REMARK   26  A    between atoms: _62  and  _63
REMARK   27  A    between atoms: _66  and  _68
REMARK   28  A    between atoms: _68  and  _69
REMARK   29  A    between atoms: _71  and  _73
REMARK   30  A    between atoms: _73  and  _74
REMARK   31  A    between atoms: _77  and  _79
REMARK   32  A    between atoms: _79  and  _80
REMARK   33  A    between atoms: _79  and  _82
REMARK   34  A    between atoms: _82  and  _83
REMARK   35  A    between atoms: _86  and  _88
REMARK   36  A    between atoms: _88  and  _89
REMARK   37  A    between atoms: _88  and  _91
REMARK   38  A    between atoms: _91  and  _92
REMARK   39  A    between atoms: _97  and  _99
REMARK   40  A    between atoms: _99  and  _100
REMARK   41  A    between atoms: _99  and  _102
REMARK   42  A    between atoms: _102  and  _103
REMARK   43  A    between atoms: _106  and  _108
REMARK   44  A    between atoms: _108  and  _109
REMARK   45  A    between atoms: _108  and  _111
REMARK   46  A    between atoms: _111  and  _112
REMARK   47  A    between atoms: _115  and  _117
REMARK   48  A    between atoms: _117  and  _118
REMARK   49  A    between atoms: _117  and  _120
REMARK   50  A    between atoms: _120  and  _121
REMARK   51  A    between atoms: _121  and  _122
REMARK   52  A    between atoms: _122  and  _123
REMARK   53  A    between atoms: _123  and  _124
REMARK   54  A    between atoms: _128  and  _130
REMARK   55  A    between atoms: _130  and  _131
REMARK   56  A    between atoms: _130  and  _133
REMARK   57  A    between atoms: _133  and  _134
REMARK   58  A    between atoms: _134  and  _135
REMARK   59  A    between atoms: _137  and  _139
REMARK   60  A    between atoms: _139  and  _140
REMARK   61  A    between atoms: _139  and  _142
REMARK   62  A    between atoms: _145  and  _147
REMARK   63  A    between atoms: _147  and  _148
REMARK   64  A    between atoms: _150  and  _152
REMARK   65  A    between atoms: _152  and  _153
REMARK   66  A    between atoms: _155  and  _157
REMARK   67  A    between atoms: _157  and  _158
REMARK   68  A    between atoms: _157  and  _160
REMARK   69  A    between atoms: _160  and  _161
REMARK   70  A    between atoms: _164  and  _166
REMARK   71  A    between atoms: _166  and  _167
REMARK   72  A    between atoms: _169  and  _171
REMARK   73  A    between atoms: _171  and  _172
REMARK   74  A    between atoms: _174  and  _176
REMARK   75  A    between atoms: _176  and  _177
REMARK   76  A    between atoms: _176  and  _179
REMARK   77  A    between atoms: _179  and  _180
REMARK   78  A    between atoms: _186  and  _188
REMARK   79  A    between atoms: _188  and  _189
REMARK   80  A    between atoms: _188  and  _191
REMARK   81  A    between atoms: _191  and  _192
REMARK   82  A    between atoms: _195  and  _197
REMARK   83  A    between atoms: _197  and  _198
REMARK   84  A    between atoms: _197  and  _200
REMARK   85  A    between atoms: _200  and  _201
REMARK   86  A    between atoms: _204  and  _206
REMARK   87  A    between atoms: _206  and  _207
REMARK   88  A    between atoms: _206  and  _209
REMARK   89  A    between atoms: _209  and  _210
REMARK   90  A    between atoms: _214  and  _215
REMARK   91  A    between atoms: _220  and  _222
REMARK   92  A    between atoms: _222  and  _223
REMARK   93  A    between atoms: _222  and  _225
REMARK   94  A    between atoms: _228  and  _230
REMARK   95  A    between atoms: _230  and  _231
REMARK   96  A    between atoms: _230  and  _233
REMARK   97  A    between atoms: _233  and  _234
REMARK   98  A    between atoms: _239  and  _241
REMARK   99  A    between atoms: _241  and  _242
REMARK  100  A    between atoms: _241  and  _244
REMARK  101  A    between atoms: _247  and  _249
REMARK  102  A    between atoms: _249  and  _250
REMARK  103  A    between atoms: _249  and  _252
REMARK  104  A    between atoms: _252  and  _253
REMARK  105  A    between atoms: _256  and  _258
REMARK  106  A    between atoms: _258  and  _259
REMARK  107  A    between atoms: _261  and  _263
REMARK  108  A    between atoms: _263  and  _264
REMARK  109  A    between atoms: _263  and  _266
REMARK  110  A    between atoms: _266  and  _267
REMARK  111  A    between atoms: _267  and  _268
REMARK  112  A    between atoms: _268  and  _269
REMARK  113  A    between atoms: _278  and  _280
REMARK  114  A    between atoms: _280  and  _281
REMARK  115  A    between atoms: _280  and  _283
REMARK  116  A    between atoms: _283  and  _284
REMARK  117  A    between atoms: _287  and  _289
REMARK  118  A    between atoms: _289  and  _290
REMARK  119  A    between atoms: _289  and  _292
REMARK  120  A    between atoms: _292  and  _293
REMARK  121  A    between atoms: _293  and  _294
REMARK  122  A    between atoms: _294  and  _295
REMARK  123  A    between atoms: _304  and  _306
REMARK  124  A    between atoms: _306  and  _307
REMARK  125  A    between atoms: _306  and  _309
REMARK  126  A    between atoms: _309  and  _310
REMARK  127  A    between atoms: _316  and  _318
REMARK  128  A    between atoms: _318  and  _319
REMARK  129  A    between atoms: _318  and  _321
REMARK  130  A    between atoms: _321  and  _322
REMARK  131  A    between atoms: _325  and  _327
REMARK  132  A    between atoms: _327  and  _328
REMARK  133  A    between atoms: _327  and  _330
REMARK  134  A    between atoms: _330  and  _331
REMARK  135  A    between atoms: _334  and  _336
REMARK  136  A    between atoms: _336  and  _337
REMARK  137  A    between atoms: _336  and  _339
REMARK  138  A    between atoms: _339  and  _340
REMARK  139  A    between atoms: _343  and  _345
REMARK  140  A    between atoms: _345  and  _346
REMARK  141  A    between atoms: _345  and  _348
REMARK  142  A    between atoms: _348  and  _349
REMARK  143  A    between atoms: _352  and  _354
REMARK  144  A    between atoms: _354  and  _355
REMARK  145  A    between atoms: _357  and  _359
REMARK  146  A    between atoms: _359  and  _360
REMARK  147  A    between atoms: _363  and  _365
REMARK  148  A    between atoms: _365  and  _366
REMARK  149  A    between atoms: _365  and  _368
REMARK  150  A    between atoms: _368  and  _369
REMARK  151  A    between atoms: _372  and  _374
REMARK  152  A    between atoms: _374  and  _375
REMARK  153  A    between atoms: _374  and  _377
REMARK  154  A    between atoms: _377  and  _378
REMARK  155  A    between atoms: _383  and  _385
REMARK  156  A    between atoms: _385  and  _386
REMARK  157  A    between atoms: _385  and  _388
REMARK  158  A    between atoms: _388  and  _389
REMARK  159  A    between atoms: _392  and  _394
REMARK  160  A    between atoms: _394  and  _395
REMARK  161  A    between atoms: _394  and  _397
REMARK  162  A    between atoms: _397  and  _398
REMARK  163  A    between atoms: _401  and  _403
REMARK  164  A    between atoms: _403  and  _404
REMARK  165  A    between atoms: _403  and  _406
REMARK  166  A    between atoms: _406  and  _407
REMARK  167  A    between atoms: _407  and  _408
REMARK  168  A    between atoms: _408  and  _409
REMARK  169  A    between atoms: _409  and  _410
REMARK  170  A    between atoms: _414  and  _416
REMARK  171  A    between atoms: _416  and  _417
REMARK  172  A    between atoms: _416  and  _419
REMARK  173  A    between atoms: _419  and  _420
REMARK  174  A    between atoms: _420  and  _421
REMARK  175  A    between atoms: _423  and  _425
REMARK  176  A    between atoms: _425  and  _426
REMARK  177  A    between atoms: _425  and  _428
REMARK  178  A    between atoms: _431  and  _433
REMARK  179  A    between atoms: _433  and  _434
REMARK  180  A    between atoms: _436  and  _438
REMARK  181  A    between atoms: _438  and  _439
REMARK  182  A    between atoms: _441  and  _443
REMARK  183  A    between atoms: _443  and  _444
REMARK  184  A    between atoms: _443  and  _446
REMARK  185  A    between atoms: _446  and  _447
REMARK  186  A    between atoms: _450  and  _452
REMARK  187  A    between atoms: _452  and  _453
REMARK  188  A    between atoms: _455  and  _457
REMARK  189  A    between atoms: _457  and  _458
REMARK  190  A    between atoms: _460  and  _462
REMARK  191  A    between atoms: _462  and  _463
REMARK  192  A    between atoms: _462  and  _465
REMARK  193  A    between atoms: _465  and  _466
REMARK  194  A    between atoms: _472  and  _474
REMARK  195  A    between atoms: _474  and  _475
REMARK  196  A    between atoms: _474  and  _477
REMARK  197  A    between atoms: _477  and  _478
REMARK  198  A    between atoms: _481  and  _483
REMARK  199  A    between atoms: _483  and  _484
REMARK  200  A    between atoms: _483  and  _486
REMARK  201  A    between atoms: _486  and  _487
REMARK  202  A    between atoms: _490  and  _492
REMARK  203  A    between atoms: _492  and  _493
REMARK  204  A    between atoms: _492  and  _495
REMARK  205  A    between atoms: _495  and  _496
REMARK  206  A    between atoms: _500  and  _501
REMARK  207  A    between atoms: _506  and  _508
REMARK  208  A    between atoms: _508  and  _509
REMARK  209  A    between atoms: _508  and  _511
REMARK  210  A    between atoms: _514  and  _516
REMARK  211  A    between atoms: _516  and  _517
REMARK  212  A    between atoms: _516  and  _519
REMARK  213  A    between atoms: _519  and  _520
REMARK  214  A    between atoms: _525  and  _527
REMARK  215  A    between atoms: _527  and  _528
REMARK  216  A    between atoms: _527  and  _530
REMARK  217  A    between atoms: _533  and  _535
REMARK  218  A    between atoms: _535  and  _536
REMARK  219  A    between atoms: _535  and  _538
REMARK  220  A    between atoms: _538  and  _539
REMARK  221  A    between atoms: _542  and  _544
REMARK  222  A    between atoms: _544  and  _545
REMARK  223  A    between atoms: _547  and  _549
REMARK  224  A    between atoms: _549  and  _550
REMARK  225  A    between atoms: _549  and  _552
REMARK  226  A    between atoms: _552  and  _553
REMARK  227  A    between atoms: _553  and  _554
REMARK  228  A    between atoms: _554  and  _555
REMARK  229  A    between atoms: _564  and  _566
REMARK  230  A    between atoms: _566  and  _567
REMARK  231  A    between atoms: _566  and  _569
REMARK  232  A    between atoms: _569  and  _570
REMARK                            x       y       z     vdW  Elec       q    Type
REMARK                         _______ _______ _______ _____ _____    ______ ____
ROOT
ATOM      1  NE  ARG A   1     -19.718 -13.610  -7.129  0.00  0.00    -0.265 N 
ATOM      2  CZ  ARG A   1     -19.719 -12.317  -6.748  0.00  0.00    +0.342 C 
ATOM      3  NH2 ARG A   1     -18.675 -11.775  -6.129  0.00  0.00    -0.292 N 
ATOM      4 HH21 ARG A   1     -18.700 -10.775  -5.845  0.00  0.00    +0.255 HD
ATOM      5 HH22 ARG A   1     -17.833 -12.351  -5.929  0.00  0.00    +0.255 HD
ATOM      6  NH1 ARG A   1     -20.793 -11.576  -6.960  0.00  0.00    -0.292 N 
ATOM      7 HH11 ARG A   1     -20.802 -10.578  -6.669  0.00  0.00    +0.255 HD
ATOM      8 HH12 ARG A   1     -21.629 -11.991  -7.418  0.00  0.00    +0.255 HD
ATOM      9  HE  ARG A   1     -20.586 -13.963  -7.581  0.00  0.00    +0.259 HD
ENDROOT
BRANCH   1  10
ATOM     10  CD  ARG A   1     -18.616 -14.574  -6.972  0.00  0.00    +0.174 C 
BRANCH  10  11
ATOM     11  CG  ARG A   1     -19.018 -16.081  -7.281  0.00  0.00    +0.045 C 
BRANCH  11  12
ATOM     12  CB  ARG A   1     -20.012 -16.796  -6.375  0.00  0.00    +0.029 C 
BRANCH  12  13
ATOM     13  CA  ARG A   1     -20.104 -18.263  -6.643  0.00  0.00    +0.133 C 
BRANCH  13  14
ATOM     14  N   ARG A   1     -20.799 -18.523  -7.930  0.00  0.00    -0.239 NA
ATOM     15  H   ARG A   1     -21.095 -17.726  -8.529  0.00  0.00    +0.142 HD
ENDBRANCH  13  14
BRANCH  13  16
ATOM     16  C   ARG A   1     -20.937 -18.887  -5.520  0.00  0.00    +0.224 C 
ATOM     17  O   ARG A   1     -22.164 -18.668  -5.467  0.00  0.00    -0.287 OA
ENDBRANCH  13  16
ENDBRANCH  12  13
ENDBRANCH  11  12
ENDBRANCH  10  11
ENDBRANCH   1  10
TORSDOF 6
REMARK  Name = ../refined-set-2016/4ye3/4ye3_pocket.pdb
REMARK  232 active torsions:
REMARK  status: ('A' for Active; 'I' for Inactive)
REMARK    1  A    between atoms: _1  and  _3
REMARK    2  A    between atoms: _3  and  _4
REMARK    3  A    between atoms: _3  and  _6
REMARK    4  A    between atoms: _6  and  _7
REMARK    5  A    between atoms: _7  and  _8
REMARK    6  A    between atoms: _8  and  _9
REMARK    7  A    between atoms: _18  and  _20
REMARK    8  A    between atoms: _20  and  _21
REMARK    9  A    between atoms: _20  and  _23
REMARK   10  A    between atoms: _23  and  _24
REMARK   11  A    between atoms: _30  and  _32
REMARK   12  A    between atoms: _32  and  _33
REMARK   13  A    between atoms: _32  and  _35
REMARK   14  A    between atoms: _35  and  _36
REMARK   15  A    between atoms: _39  and  _41
REMARK   16  A    between atoms: _41  and  _42
REMARK   17  A    between atoms: _41  and  _44
REMARK   18  A    between atoms: _44  and  _45
REMARK   19  A    between atoms: _48  and  _50
REMARK   20  A    between atoms: _50  and  _51
REMARK   21  A    between atoms: _50  and  _53
REMARK   22  A    between atoms: _53  and  _54
REMARK   23  A    between atoms: _57  and  _59
REMARK   24  A    between atoms: _59  and  _60
REMARK   25  A    between atoms: _59  and  _62
REMARK   26  A    between atoms: _62  and  _63
REMARK   27  A    between atoms: _66  and  _68
REMARK   28  A    between atoms: _68  and  _69
REMARK   29  A    between atoms: _71  and  _73
REMARK   30  A    between atoms: _73  and  _74
REMARK   31  A    between atoms: _77  and  _79
REMARK   32  A    between atoms: _79  and  _80
REMARK   33  A    between atoms: _79  and  _82
REMARK   34  A    between atoms: _82  and  _83
REMARK   35  A    between atoms: _86  and  _88
REMARK   36  A    between atoms: _88  and  _89
REMARK   37  A    between atoms: _88  and  _91
REMARK   38  A    between atoms: _91  and  _92
REMARK   39  A    between atoms: _97  and  _99
REMARK   40  A    between atoms: _99  and  _100
REMARK   41  A    between atoms: _99  and  _102
REMARK   42  A    between atoms: _102  and  _103
REMARK   43  A    between atoms: _106  and  _108
REMARK   44  A    between atoms: _108  and  _109
REMARK   45  A    between atoms: _108  and  _111
REMARK   46  A    between atoms: _111  and  _112
REMARK   47  A    between atoms: _115  and  _117
REMARK   48  A    between atoms: _117  and  _118
REMARK   49  A    between atoms: _117  and  _120
REMARK   50  A    between atoms: _120  and  _121
REMARK   51  A    between atoms: _121  and  _122
REMARK   52  A    between atoms: _122  and  _123
REMARK   53  A    between atoms: _123  and  _124
REMARK   54  A    between atoms: _128  and  _130
REMARK   55  A    between atoms: _130  and  _131
REMARK   56  A    between atoms: _130  and  _133
REMARK   57  A    between atoms: _133  and  _134
REMARK   58  A    between atoms: _134  and  _135
REMARK   59  A    between atoms: _137  and  _139
REMARK   60  A    between atoms: _139  and  _140
REMARK   61  A    between atoms: _139  and  _142
REMARK   62  A    between atoms: _145  and  _147
REMARK   63  A    between atoms: _147  and  _148
REMARK   64  A    between atoms: _150  and  _152
REMARK   65  A    between atoms: _152  and  _153
REMARK   66  A    between atoms: _155  and  _157
REMARK   67  A    between atoms: _157  and  _158
REMARK   68  A    between atoms: _157  and  _160
REMARK   69  A    between atoms: _160  and  _161
REMARK   70  A    between atoms: _164  and  _166
REMARK   71  A    between atoms: _166  and  _167
REMARK   72  A    between atoms: _169  and  _171
REMARK   73  A    between atoms: _171  and  _172
REMARK   74  A    between atoms: _174  and  _176
REMARK   75  A    between atoms: _176  and  _177
REMARK   76  A    between atoms: _176  and  _179
REMARK   77  A    between atoms: _179  and  _180
REMARK   78  A    between atoms: _186  and  _188
REMARK   79  A    between atoms: _188  and  _189
REMARK   80  A    between atoms: _188  and  _191
REMARK   81  A    between atoms: _191  and  _192
REMARK   82  A    between atoms: _195  and  _197
REMARK   83  A    between atoms: _197  and  _198
REMARK   84  A    between atoms: _197  and  _200
REMARK   85  A    between atoms: _200  and  _201
REMARK   86  A    between atoms: _204  and  _206
REMARK   87  A    between atoms: _206  and  _207
REMARK   88  A    between atoms: _206  and  _209
REMARK   89  A    between atoms: _209  and  _210
REMARK   90  A    between atoms: _214  and  _215
REMARK   91  A    between atoms: _220  and  _222
REMARK   92  A    between atoms: _222  and  _223
REMARK   93  A    between atoms: _222  and  _225
REMARK   94  A    between atoms: _228  and  _230
REMARK   95  A    between atoms: _230  and  _231
REMARK   96  A    between atoms: _230  and  _233
REMARK   97  A    between atoms: _233  and  _234
REMARK   98  A    between atoms: _239  and  _241
REMARK   99  A    between atoms: _241  and  _242
REMARK  100  A    between atoms: _241  and  _244
REMARK  101  A    between atoms: _247  and  _249
REMARK  102  A    between atoms: _249  and  _250
REMARK  103  A    between atoms: _249  and  _252
REMARK  104  A    between atoms: _252  and  _253
REMARK  105  A    between atoms: _256  and  _258
REMARK  106  A    between atoms: _258  and  _259
REMARK  107  A    between atoms: _261  and  _263
REMARK  108  A    between atoms: _263  and  _264
REMARK  109  A    between atoms: _263  and  _266
REMARK  110  A    between atoms: _266  and  _267
REMARK  111  A    between atoms: _267  and  _268
REMARK  112  A    between atoms: _268  and  _269
REMARK  113  A    between atoms: _278  and  _280
REMARK  114  A    between atoms: _280  and  _281
REMARK  115  A    between atoms: _280  and  _283
REMARK  116  A    between atoms: _283  and  _284
REMARK  117  A    between atoms: _287  and  _289
REMARK  118  A    between atoms: _289  and  _290
REMARK  119  A    between atoms: _289  and  _292
REMARK  120  A    between atoms: _292  and  _293
REMARK  121  A    between atoms: _293  and  _294
REMARK  122  A    between atoms: _294  and  _295
REMARK  123  A    between atoms: _304  and  _306
REMARK  124  A    between atoms: _306  and  _307
REMARK  125  A    between atoms: _306  and  _309
REMARK  126  A    between atoms: _309  and  _310
REMARK  127  A    between atoms: _316  and  _318
REMARK  128  A    between atoms: _318  and  _319
REMARK  129  A    between atoms: _318  and  _321
REMARK  130  A    between atoms: _321  and  _322
REMARK  131  A    between atoms: _325  and  _327
REMARK  132  A    between atoms: _327  and  _328
REMARK  133  A    between atoms: _327  and  _330
REMARK  134  A    between atoms: _330  and  _331
REMARK  135  A    between atoms: _334  and  _336
REMARK  136  A    between atoms: _336  and  _337
REMARK  137  A    between atoms: _336  and  _339
REMARK  138  A    between atoms: _339  and  _340
REMARK  139  A    between atoms: _343  and  _345
REMARK  140  A    between atoms: _345  and  _346
REMARK  141  A    between atoms: _345  and  _348
REMARK  142  A    between atoms: _348  and  _349
REMARK  143  A    between atoms: _352  and  _354
REMARK  144  A    between atoms: _354  and  _355
REMARK  145  A    between atoms: _357  and  _359
REMARK  146  A    between atoms: _359  and  _360
REMARK  147  A    between atoms: _363  and  _365
REMARK  148  A    between atoms: _365  and  _366
REMARK  149  A    between atoms: _365  and  _368
REMARK  150  A    between atoms: _368  and  _369
REMARK  151  A    between atoms: _372  and  _374
REMARK  152  A    between atoms: _374  and  _375
REMARK  153  A    between atoms: _374  and  _377
REMARK  154  A    between atoms: _377  and  _378
REMARK  155  A    between atoms: _383  and  _385
REMARK  156  A    between atoms: _385  and  _386
REMARK  157  A    between atoms: _385  and  _388
REMARK  158  A    between atoms: _388  and  _389
REMARK  159  A    between atoms: _392  and  _394
REMARK  160  A    between atoms: _394  and  _395
REMARK  161  A    between atoms: _394  and  _397
REMARK  162  A    between atoms: _397  and  _398
REMARK  163  A    between atoms: _401  and  _403
REMARK  164  A    between atoms: _403  and  _404
REMARK  165  A    between atoms: _403  and  _406
REMARK  166  A    between atoms: _406  and  _407
REMARK  167  A    between atoms: _407  and  _408
REMARK  168  A    between atoms: _408  and  _409
REMARK  169  A    between atoms: _409  and  _410
REMARK  170  A    between atoms: _414  and  _416
REMARK  171  A    between atoms: _416  and  _417
REMARK  172  A    between atoms: _416  and  _419
REMARK  173  A    between atoms: _419  and  _420
REMARK  174  A    between atoms: _420  and  _421
REMARK  175  A    between atoms: _423  and  _425
REMARK  176  A    between atoms: _425  and  _426
REMARK  177  A    between atoms: _425  and  _428
REMARK  178  A    between atoms: _431  and  _433
REMARK  179  A    between atoms: _433  and  _434
REMARK  180  A    between atoms: _436  and  _438
REMARK  181  A    between atoms: _438  and  _439
REMARK  182  A    between atoms: _441  and  _443
REMARK  183  A    between atoms: _443  and  _444
REMARK  184  A    between atoms: _443  and  _446
REMARK  185  A    between atoms: _446  and  _447
REMARK  186  A    between atoms: _450  and  _452
REMARK  187  A    between atoms: _452  and  _453
REMARK  188  A    between atoms: _455  and  _457
REMARK  189  A    between atoms: _457  and  _458
REMARK  190  A    between atoms: _460  and  _462
REMARK  191  A    between atoms: _462  and  _463
REMARK  192  A    between atoms: _462  and  _465
REMARK  193  A    between atoms: _465  and  _466
REMARK  194  A    between atoms: _472  and  _474
REMARK  195  A    between atoms: _474  and  _475
REMARK  196  A    between atoms: _474  and  _477
REMARK  197  A    between atoms: _477  and  _478
REMARK  198  A    between atoms: _481  and  _483
REMARK  199  A    between atoms: _483  and  _484
REMARK  200  A    between atoms: _483  and  _486
REMARK  201  A    between atoms: _486  and  _487
REMARK  202  A    between atoms: _490  and  _492
REMARK  203  A    between atoms: _492  and  _493
REMARK  204  A    between atoms: _492  and  _495
REMARK  205  A    between atoms: _495  and  _496
REMARK  206  A    between atoms: _500  and  _501
REMARK  207  A    between atoms: _506  and  _508
REMARK  208  A    between atoms: _508  and  _509
REMARK  209  A    between atoms: _508  and  _511
REMARK  210  A    between atoms: _514  and  _516
REMARK  211  A    between atoms: _516  and  _517
REMARK  212  A    between atoms: _516  and  _519
REMARK  213  A    between atoms: _519  and  _520
REMARK  214  A    between atoms: _525  and  _527
REMARK  215  A    between atoms: _527  and  _528
REMARK  216  A    between atoms: _527  and  _530
REMARK  217  A    between atoms: _533  and  _535
REMARK  218  A    between atoms: _535  and  _536
REMARK  219  A    between atoms: _535  and  _538
REMARK  220  A    between atoms: _538  and  _539
REMARK  221  A    between atoms: _542  and  _544
REMARK  222  A    between atoms: _544  and  _545
REMARK  223  A    between atoms: _547  and  _549
REMARK  224  A    between atoms: _549  and  _550
REMARK  225  A    between atoms: _549  and  _552
REMARK  226  A    between atoms: _552  and  _553
REMARK  227  A    between atoms: _553  and  _554
REMARK  228  A    between atoms: _554  and  _555
REMARK  229  A    between atoms: _564  and  _566
REMARK  230  A    between atoms: _566  and  _567
REMARK  231  A    between atoms: _566  and  _569
REMARK  232  A    between atoms: _569  and  _570
REMARK                            x       y       z     vdW  Elec       q    Type
REMARK                         _______ _______ _______ _____ _____    ______ ____
ROOT
ATOM      1  CB  PHE A   1     -23.534 -16.427  -2.016  0.00  0.00    +0.051 C 
ENDROOT
BRANCH   1   2
ATOM      2  CG  PHE A   1     -22.553 -15.405  -2.441  0.00  0.00    -0.020 A 
ATOM      3  CD2 PHE A   1     -21.866 -14.712  -1.438  0.00  0.00    -0.004 A 
ATOM      4  CE2 PHE A   1     -20.951 -13.803  -1.733  0.00  0.00    -0.000 A 
ATOM      5  CZ  PHE A   1     -20.672 -13.489  -3.083  0.00  0.00    -0.000 A 
ATOM      6  CE1 PHE A   1     -21.305 -14.197  -4.111  0.00  0.00    -0.000 A 
ATOM      7  CD1 PHE A   1     -22.270 -15.164  -3.785  0.00  0.00    -0.004 A 
ENDBRANCH   1   2
BRANCH   1   8
ATOM      8  CA  PHE A   1     -22.875 -17.672  -1.476  0.00  0.00    +0.137 C 
BRANCH   8   9
ATOM      9  N   PHE A   1     -22.310 -18.495  -2.544  0.00  0.00    -0.239 NA
ATOM     10  H   PHE A   1     -22.628 -18.327  -3.520  0.00  0.00    +0.142 HD
ENDBRANCH   8   9
BRANCH   8  11
ATOM     11  C   PHE A   1     -23.829 -18.430  -0.648  0.00  0.00    +0.224 C 
ATOM     12  O   PHE A   1     -24.691 -19.170  -1.164  0.00  0.00    -0.287 OA
ENDBRANCH   8  11
ENDBRANCH   1   8
TORSDOF 4
REMARK  Name = ../refined-set-2016/4ye3/4ye3_pocket.pdb
REMARK  232 active torsions:
REMARK  status: ('A' for Active; 'I' for Inactive)
REMARK    1  A    between atoms: _1  and  _3
REMARK    2  A    between atoms: _3  and  _4
REMARK    3  A    between atoms: _3  and  _6
REMARK    4  A    between atoms: _6  and  _7
REMARK    5  A    between atoms: _7  and  _8
REMARK    6  A    between atoms: _8  and  _9
REMARK    7  A    between atoms: _18  and  _20
REMARK    8  A    between atoms: _20  and  _21
REMARK    9  A    between atoms: _20  and  _23
REMARK   10  A    between atoms: _23  and  _24
REMARK   11  A    between atoms: _30  and  _32
REMARK   12  A    between atoms: _32  and  _33
REMARK   13  A    between atoms: _32  and  _35
REMARK   14  A    between atoms: _35  and  _36
REMARK   15  A    between atoms: _39  and  _41
REMARK   16  A    between atoms: _41  and  _42
REMARK   17  A    between atoms: _41  and  _44
REMARK   18  A    between atoms: _44  and  _45
REMARK   19  A    between atoms: _48  and  _50
REMARK   20  A    between atoms: _50  and  _51
REMARK   21  A    between atoms: _50  and  _53
REMARK   22  A    between atoms: _53  and  _54
REMARK   23  A    between atoms: _57  and  _59
REMARK   24  A    between atoms: _59  and  _60
REMARK   25  A    between atoms: _59  and  _62
REMARK   26  A    between atoms: _62  and  _63
REMARK   27  A    between atoms: _66  and  _68
REMARK   28  A    between atoms: _68  and  _69
REMARK   29  A    between atoms: _71  and  _73
REMARK   30  A    between atoms: _73  and  _74
REMARK   31  A    between atoms: _77  and  _79
REMARK   32  A    between atoms: _79  and  _80
REMARK   33  A    between atoms: _79  and  _82
REMARK   34  A    between atoms: _82  and  _83
REMARK   35  A    between atoms: _86  and  _88
REMARK   36  A    between atoms: _88  and  _89
REMARK   37  A    between atoms: _88  and  _91
REMARK   38  A    between atoms: _91  and  _92
REMARK   39  A    between atoms: _97  and  _99
REMARK   40  A    between atoms: _99  and  _100
REMARK   41  A    between atoms: _99  and  _102
REMARK   42  A    between atoms: _102  and  _103
REMARK   43  A    between atoms: _106  and  _108
REMARK   44  A    between atoms: _108  and  _109
REMARK   45  A    between atoms: _108  and  _111
REMARK   46  A    between atoms: _111  and  _112
REMARK   47  A    between atoms: _115  and  _117
REMARK   48  A    between atoms: _117  and  _118
REMARK   49  A    between atoms: _117  and  _120
REMARK   50  A    between atoms: _120  and  _121
REMARK   51  A    between atoms: _121  and  _122
REMARK   52  A    between atoms: _122  and  _123
REMARK   53  A    between atoms: _123  and  _124
REMARK   54  A    between atoms: _128  and  _130
REMARK   55  A    between atoms: _130  and  _131
REMARK   56  A    between atoms: _130  and  _133
REMARK   57  A    between atoms: _133  and  _134
REMARK   58  A    between atoms: _134  and  _135
REMARK   59  A    between atoms: _137  and  _139
REMARK   60  A    between atoms: _139  and  _140
REMARK   61  A    between atoms: _139  and  _142
REMARK   62  A    between atoms: _145  and  _147
REMARK   63  A    between atoms: _147  and  _148
REMARK   64  A    between atoms: _150  and  _152
REMARK   65  A    between atoms: _152  and  _153
REMARK   66  A    between atoms: _155  and  _157
REMARK   67  A    between atoms: _157  and  _158
REMARK   68  A    between atoms: _157  and  _160
REMARK   69  A    between atoms: _160  and  _161
REMARK   70  A    between atoms: _164  and  _166
REMARK   71  A    between atoms: _166  and  _167
REMARK   72  A    between atoms: _169  and  _171
REMARK   73  A    between atoms: _171  and  _172
REMARK   74  A    between atoms: _174  and  _176
REMARK   75  A    between atoms: _176  and  _177
REMARK   76  A    between atoms: _176  and  _179
REMARK   77  A    between atoms: _179  and  _180
REMARK   78  A    between atoms: _186  and  _188
REMARK   79  A    between atoms: _188  and  _189
REMARK   80  A    between atoms: _188  and  _191
REMARK   81  A    between atoms: _191  and  _192
REMARK   82  A    between atoms: _195  and  _197
REMARK   83  A    between atoms: _197  and  _198
REMARK   84  A    between atoms: _197  and  _200
REMARK   85  A    between atoms: _200  and  _201
REMARK   86  A    between atoms: _204  and  _206
REMARK   87  A    between atoms: _206  and  _207
REMARK   88  A    between atoms: _206  and  _209
REMARK   89  A    between atoms: _209  and  _210
REMARK   90  A    between atoms: _214  and  _215
REMARK   91  A    between atoms: _220  and  _222
REMARK   92  A    between atoms: _222  and  _223
REMARK   93  A    between atoms: _222  and  _225
REMARK   94  A    between atoms: _228  and  _230
REMARK   95  A    between atoms: _230  and  _231
REMARK   96  A    between atoms: _230  and  _233
REMARK   97  A    between atoms: _233  and  _234
REMARK   98  A    between atoms: _239  and  _241
REMARK   99  A    between atoms: _241  and  _242
REMARK  100  A    between atoms: _241  and  _244
REMARK  101  A    between atoms: _247  and  _249
REMARK  102  A    between atoms: _249  and  _250
REMARK  103  A    between atoms: _249  and  _252
REMARK  104  A    between atoms: _252  and  _253
REMARK  105  A    between atoms: _256  and  _258
REMARK  106  A    between atoms: _258  and  _259
REMARK  107  A    between atoms: _261  and  _263
REMARK  108  A    between atoms: _263  and  _264
REMARK  109  A    between atoms: _263  and  _266
REMARK  110  A    between atoms: _266  and  _267
REMARK  111  A    between atoms: _267  and  _268
REMARK  112  A    between atoms: _268  and  _269
REMARK  113  A    between atoms: _278  and  _280
REMARK  114  A    between atoms: _280  and  _281
REMARK  115  A    between atoms: _280  and  _283
REMARK  116  A    between atoms: _283  and  _284
REMARK  117  A    between atoms: _287  and  _289
REMARK  118  A    between atoms: _289  and  _290
REMARK  119  A    between atoms: _289  and  _292
REMARK  120  A    between atoms: _292  and  _293
REMARK  121  A    between atoms: _293  and  _294
REMARK  122  A    between atoms: _294  and  _295
REMARK  123  A    between atoms: _304  and  _306
REMARK  124  A    between atoms: _306  and  _307
REMARK  125  A    between atoms: _306  and  _309
REMARK  126  A    between atoms: _309  and  _310
REMARK  127  A    between atoms: _316  and  _318
REMARK  128  A    between atoms: _318  and  _319
REMARK  129  A    between atoms: _318  and  _321
REMARK  130  A    between atoms: _321  and  _322
REMARK  131  A    between atoms: _325  and  _327
REMARK  132  A    between atoms: _327  and  _328
REMARK  133  A    between atoms: _327  and  _330
REMARK  134  A    between atoms: _330  and  _331
REMARK  135  A    between atoms: _334  and  _336
REMARK  136  A    between atoms: _336  and  _337
REMARK  137  A    between atoms: _336  and  _339
REMARK  138  A    between atoms: _339  and  _340
REMARK  139  A    between atoms: _343  and  _345
REMARK  140  A    between atoms: _345  and  _346
REMARK  141  A    between atoms: _345  and  _348
REMARK  142  A    between atoms: _348  and  _349
REMARK  143  A    between atoms: _352  and  _354
REMARK  144  A    between atoms: _354  and  _355
REMARK  145  A    between atoms: _357  and  _359
REMARK  146  A    between atoms: _359  and  _360
REMARK  147  A    between atoms: _363  and  _365
REMARK  148  A    between atoms: _365  and  _366
REMARK  149  A    between atoms: _365  and  _368
REMARK  150  A    between atoms: _368  and  _369
REMARK  151  A    between atoms: _372  and  _374
REMARK  152  A    between atoms: _374  and  _375
REMARK  153  A    between atoms: _374  and  _377
REMARK  154  A    between atoms: _377  and  _378
REMARK  155  A    between atoms: _383  and  _385
REMARK  156  A    between atoms: _385  and  _386
REMARK  157  A    between atoms: _385  and  _388
REMARK  158  A    between atoms: _388  and  _389
REMARK  159  A    between atoms: _392  and  _394
REMARK  160  A    between atoms: _394  and  _395
REMARK  161  A    between atoms: _394  and  _397
REMARK  162  A    between atoms: _397  and  _398
REMARK  163  A    between atoms: _401  and  _403
REMARK  164  A    between atoms: _403  and  _404
REMARK  165  A    between atoms: _403  and  _406
REMARK  166  A    between atoms: _406  and  _407
REMARK  167  A    between atoms: _407  and  _408
REMARK  168  A    between atoms: _408  and  _409
REMARK  169  A    between atoms: _409  and  _410
REMARK  170  A    between atoms: _414  and  _416
REMARK  171  A    between atoms: _416  and  _417
REMARK  172  A    between atoms: _416  and  _419
REMARK  173  A    between atoms: _419  and  _420
REMARK  174  A    between atoms: _420  and  _421
REMARK  175  A    between atoms: _423  and  _425
REMARK  176  A    between atoms: _425  and  _426
REMARK  177  A    between atoms: _425  and  _428
REMARK  178  A    between atoms: _431  and  _433
REMARK  179  A    between atoms: _433  and  _434
REMARK  180  A    between atoms: _436  and  _438
REMARK  181  A    between atoms: _438  and  _439
REMARK  182  A    between atoms: _441  and  _443
REMARK  183  A    between atoms: _443  and  _444
REMARK  184  A    between atoms: _443  and  _446
REMARK  185  A    between atoms: _446  and  _447
REMARK  186  A    between atoms: _450  and  _452
REMARK  187  A    between atoms: _452  and  _453
REMARK  188  A    between atoms: _455  and  _457
REMARK  189  A    between atoms: _457  and  _458
REMARK  190  A    between atoms: _460  and  _462
REMARK  191  A    between atoms: _462  and  _463
REMARK  192  A    between atoms: _462  and  _465
REMARK  193  A    between atoms: _465  and  _466
REMARK  194  A    between atoms: _472  and  _474
REMARK  195  A    between atoms: _474  and  _475
REMARK  196  A    between atoms: _474  and  _477
REMARK  197  A    between atoms: _477  and  _478
REMARK  198  A    between atoms: _481  and  _483
REMARK  199  A    between atoms: _483  and  _484
REMARK  200  A    between atoms: _483  and  _486
REMARK  201  A    between atoms: _486  and  _487
REMARK  202  A    between atoms: _490  and  _492
REMARK  203  A    between atoms: _492  and  _493
REMARK  204  A    between atoms: _492  and  _495
REMARK  205  A    between atoms: _495  and  _496
REMARK  206  A    between atoms: _500  and  _501
REMARK  207  A    between atoms: _506  and  _508
REMARK  208  A    between atoms: _508  and  _509
REMARK  209  A    between atoms: _508  and  _511
REMARK  210  A    between atoms: _514  and  _516
REMARK  211  A    between atoms: _516  and  _517
REMARK  212  A    between atoms: _516  and  _519
REMARK  213  A    between atoms: _519  and  _520
REMARK  214  A    between atoms: _525  and  _527
REMARK  215  A    between atoms: _527  and  _528
REMARK  216  A    between atoms: _527  and  _530
REMARK  217  A    between atoms: _533  and  _535
REMARK  218  A    between atoms: _535  and  _536
REMARK  219  A    between atoms: _535  and  _538
REMARK  220  A    between atoms: _538  and  _539
REMARK  221  A    between atoms: _542  and  _544
REMARK  222  A    between atoms: _544  and  _545
REMARK  223  A    between atoms: _547  and  _549
REMARK  224  A    between atoms: _549  and  _550
REMARK  225  A    between atoms: _549  and  _552
REMARK  226  A    between atoms: _552  and  _553
REMARK  227  A    between atoms: _553  and  _554
REMARK  228  A    between atoms: _554  and  _555
REMARK  229  A    between atoms: _564  and  _566
REMARK  230  A    between atoms: _566  and  _567
REMARK  231  A    between atoms: _566  and  _569
REMARK  232  A    between atoms: _569  and  _570
REMARK                            x       y       z     vdW  Elec       q    Type
REMARK                         _______ _______ _______ _____ _____    ______ ____
ROOT
ATOM      1  C   GLY A   5      -8.951 -20.223   1.475  0.00  0.00    +0.243 C 
ATOM      2  N   ALA A   6      -9.960 -19.985   2.330  0.00  0.00    -0.297 N 
ATOM      3  H   ALA A   6     -10.857 -20.495   2.203  0.00  0.00    +0.150 HD
ATOM      4  O   GLY A   5      -7.853 -19.629   1.556  0.00  0.00    -0.273 OA
ENDROOT
BRANCH   2   5
ATOM      5  CA  ALA A   6      -9.839 -19.041   3.423  0.00  0.00    +0.149 C 
ATOM      6  CB  ALA A   6     -11.063 -18.197   3.479  0.00  0.00    +0.031 C 
BRANCH   5   7
ATOM      7  C   ALA A   6      -9.733 -19.829   4.732  0.00  0.00    +0.241 C 
ATOM      8  N   ASP A   7      -8.671 -19.554   5.506  0.00  0.00    -0.297 N 
ATOM      9  H   ASP A   7      -7.961 -18.868   5.179  0.00  0.00    +0.150 HD
ATOM     10  O   ALA A   6     -10.568 -20.653   5.071  0.00  0.00    -0.273 OA
BRANCH   8  11
ATOM     11  CA  ASP A   7      -8.500 -20.212   6.812  0.00  0.00    +0.160 C 
BRANCH  11  12
ATOM     12  C   ASP A   7      -9.554 -19.643   7.786  0.00  0.00    +0.241 C 
ATOM     13  O   ASP A   7     -10.056 -20.415   8.637  0.00  0.00    -0.273 OA
ATOM     14  N   ASN A   8      -9.835 -18.324   7.748  0.00  0.00    -0.297 N 
ATOM     15  H   ASN A   8      -9.376 -17.717   7.039  0.00  0.00    +0.150 HD
BRANCH  14  16
ATOM     16  CA  ASN A   8     -10.778 -17.747   8.695  0.00  0.00    +0.158 C 
BRANCH  16  17
ATOM     17  C   ASN A   8     -11.951 -17.094   7.990  0.00  0.00    +0.241 C 
ATOM     18  N   THR A   9     -12.916 -16.760   8.780  0.00  0.00    -0.295 N 
ATOM     19  H   THR A   9     -12.784 -16.975   9.789  0.00  0.00    +0.150 HD
ATOM     20  O   ASN A   8     -11.954 -16.865   6.796  0.00  0.00    -0.273 OA
BRANCH  18  21
ATOM     21  CA  THR A   9     -14.132 -16.135   8.424  0.00  0.00    +0.176 C 
BRANCH  21  22
ATOM     22  C   THR A   9     -14.030 -14.645   8.613  0.00  0.00    +0.243 C 
ATOM     23  O   THR A   9     -13.595 -14.192   9.680  0.00  0.00    -0.273 OA
ATOM     24  N   ILE A  10     -14.528 -13.917   7.629  0.00  0.00    -0.298 N 
ATOM     25  H   ILE A  10     -15.072 -14.383   6.875  0.00  0.00    +0.150 HD
BRANCH  24  26
ATOM     26  CA  ILE A  10     -14.332 -12.494   7.581  0.00  0.00    +0.137 C 
BRANCH  26  27
ATOM     27  CB  ILE A  10     -13.191 -12.080   6.654  0.00  0.00    +0.026 C 
ATOM     28  CG2 ILE A  10     -12.897 -10.586   6.770  0.00  0.00    +0.002 C 
BRANCH  27  29
ATOM     29  CG1 ILE A  10     -11.911 -12.881   6.967  0.00  0.00    +0.002 C 
ATOM     30  CD1 ILE A  10     -10.746 -12.592   6.091  0.00  0.00    +0.000 C 
ENDBRANCH  27  29
ENDBRANCH  26  27
BRANCH  26  31
ATOM     31  C   ILE A  10     -15.598 -11.789   7.114  0.00  0.00    +0.227 C 
ATOM     32  O   ILE A  10     -16.217 -12.191   6.078  0.00  0.00    -0.286 OA
ENDBRANCH  26  31
ENDBRANCH  24  26
ENDBRANCH  21  22
BRANCH  21  33
ATOM     33  CB  THR A   9     -15.210 -16.742   9.335  0.00  0.00    +0.137 C 
ATOM     34  CG2 THR A   9     -16.560 -16.069   9.198  0.00  0.00    +0.034 C 
BRANCH  33  35
ATOM     35  OG1 THR A   9     -15.341 -18.147   8.936  0.00  0.00    -0.382 OA
ATOM     36  HG1 THR A   9     -16.029 -18.586   9.497  0.00  0.00    +0.210 HD
ENDBRANCH  33  35
ENDBRANCH  21  33
ENDBRANCH  18  21
ENDBRANCH  16  17
BRANCH  16  37
ATOM     37  CB  ASN A   8     -10.182 -16.579   9.554  0.00  0.00    +0.114 C 
BRANCH  37  38
ATOM     38  CG  ASN A   8      -9.222 -16.996  10.602  0.00  0.00    +0.222 C 
ATOM     39  ND2 ASN A   8      -9.728 -17.230  11.757  0.00  0.00    -0.329 N 
ATOM     40 HD21 ASN A   8      -9.125 -17.586  12.526  0.00  0.00    +0.145 HD
ATOM     41 HD22 ASN A   8     -10.741 -17.064  11.924  0.00  0.00    +0.145 HD
ATOM     42  OD1 ASN A   8      -8.043 -17.176  10.361  0.00  0.00    -0.275 OA
ENDBRANCH  37  38
ENDBRANCH  16  37
ENDBRANCH  14  16
ENDBRANCH  11  12
BRANCH  11  43
ATOM     43  CB  ASP A   7      -7.160 -19.914   7.406  0.00  0.00    +0.143 C 
BRANCH  43  44
ATOM     44  CG  ASP A   7      -6.004 -20.449   6.627  0.00  0.00    +0.367 C 
ATOM     45  OD2 ASP A   7      -4.845 -19.937   6.909  0.00  0.00    -0.246 OA
ATOM     46  OD1 ASP A   7      -6.058 -21.345   5.782  0.00  0.00    -0.246 OA
ENDBRANCH  43  44
ENDBRANCH  11  43
ENDBRANCH   8  11
ENDBRANCH   5   7
ENDBRANCH   2   5
BRANCH   1  47
ATOM     47  CA  GLY A   5      -9.162 -21.207   0.318  0.00  0.00    +0.176 C 
BRANCH  47  50
ATOM     48  C   THR A   4     -10.781 -22.887   1.023  0.00  0.00    +0.243 C 
ATOM     49  O   THR A   4      -9.959 -23.489   1.700  0.00  0.00    -0.273 OA
ATOM     50  N   GLY A   5     -10.508 -21.771   0.297  0.00  0.00    -0.295 N 
ATOM     51  H   GLY A   5     -11.254 -21.321  -0.271  0.00  0.00    +0.150 HD
BRANCH  48  52
ATOM     52  CA  THR A   4     -12.256 -23.357   1.015  0.00  0.00    +0.176 C 
BRANCH  52  55
ATOM     53  C   ASP A   3     -13.372 -21.261   1.239  0.00  0.00    +0.241 C 
ATOM     54  O   ASP A   3     -12.785 -21.021   2.302  0.00  0.00    -0.273 OA
ATOM     55  N   THR A   4     -13.151 -22.343   0.527  0.00  0.00    -0.295 N 
ATOM     56  H   THR A   4     -13.624 -22.466  -0.391  0.00  0.00    +0.150 HD
BRANCH  53  57
ATOM     57  CA  ASP A   3     -14.412 -20.312   0.704  0.00  0.00    +0.160 C 
BRANCH  57  59
ATOM     58  C   LEU A   2     -16.808 -20.671   0.522  0.00  0.00    +0.241 C 
ATOM     59  N   ASP A   3     -15.732 -20.486   1.279  0.00  0.00    -0.297 N 
ATOM     60  H   ASP A   3     -15.839 -20.465   2.313  0.00  0.00    +0.150 HD
ATOM     61  O   LEU A   2     -16.750 -20.896  -0.679  0.00  0.00    -0.273 OA
BRANCH  58  62
ATOM     62  CA  LEU A   2     -18.152 -20.607   1.230  0.00  0.00    +0.149 C 
BRANCH  62  65
ATOM     63  C   LEU A   1     -18.254 -18.107   0.849  0.00  0.00    +0.238 C 
ATOM     64  O   LEU A   1     -17.300 -17.814   1.637  0.00  0.00    -0.274 OA
ATOM     65  N   LEU A   2     -18.776 -19.394   0.684  0.00  0.00    -0.297 N 
ATOM     66  H   LEU A   2     -19.658 -19.499   0.143  0.00  0.00    +0.150 HD
BRANCH  63  67
ATOM     67  CA  LEU A   1     -18.836 -16.854   0.088  0.00  0.00    +0.145 C 
BRANCH  67  68
ATOM     68  N   LEU A   1     -19.324 -15.894   1.037  0.00  0.00    -0.238 NA
ATOM     69  H   LEU A   1     -18.683 -15.127   1.324  0.00  0.00    +0.142 HD
ENDBRANCH  67  68
BRANCH  67  70
ATOM     70  CB  LEU A   1     -17.726 -16.037  -0.638  0.00  0.00    +0.026 C 
BRANCH  70  71
ATOM     71  CG  LEU A   1     -16.977 -16.749  -1.735  0.00  0.00    +0.002 C 
ATOM     72  CD2 LEU A   1     -15.928 -15.851  -2.228  0.00  0.00    +0.000 C 
ATOM     73  CD1 LEU A   1     -17.967 -17.021  -2.873  0.00  0.00    +0.000 C 
ENDBRANCH  70  71
ENDBRANCH  67  70
ENDBRANCH  63  67
ENDBRANCH  62  65
BRANCH  62  74
ATOM     74  CB  LEU A   2     -18.986 -21.832   1.006  0.00  0.00    +0.029 C 
BRANCH  74  75
ATOM     75  CG  LEU A   2     -20.362 -21.842   1.641  0.00  0.00    +0.002 C 
ATOM     76  CD2 LEU A   2     -20.142 -21.928   3.136  0.00  0.00    +0.000 C 
ATOM     77  CD1 LEU A   2     -21.092 -23.112   1.135  0.00  0.00    +0.000 C 
ENDBRANCH  74  75
ENDBRANCH  62  74
ENDBRANCH  58  62
ENDBRANCH  57  59
BRANCH  57  78
ATOM     78  CB  ASP A   3     -14.020 -18.871   0.947  0.00  0.00    +0.143 C 
BRANCH  78  79
ATOM     79  CG  ASP A   3     -12.837 -18.523   0.255  0.00  0.00    +0.367 C 
ATOM     80  OD2 ASP A   3     -12.484 -17.330   0.228  0.00  0.00    -0.246 OA
ATOM     81  OD1 ASP A   3     -12.212 -19.433  -0.360  0.00  0.00    -0.246 OA
ENDBRANCH  78  79
ENDBRANCH  57  78
ENDBRANCH  53  57
ENDBRANCH  52  55
BRANCH  52  82
ATOM     82  CB  THR A   4     -12.358 -24.631   0.195  0.00  0.00    +0.137 C 
ATOM     83  CG2 THR A   4     -13.754 -25.250   0.329  0.00  0.00    +0.034 C 
BRANCH  82  84
ATOM     84  OG1 THR A   4     -12.098 -24.342  -1.191  0.00  0.00    -0.382 OA
ATOM     85  HG1 THR A   4     -11.187 -23.965  -1.283  0.00  0.00    +0.210 HD
ENDBRANCH  82  84
ENDBRANCH  52  82
ENDBRANCH  48  52
ENDBRANCH  47  50
ENDBRANCH   1  47
TORSDOF 36
REMARK  Name = ../refined-set-2016/4ye3/4ye3_pocket.pdb
REMARK  232 active torsions:
REMARK  status: ('A' for Active; 'I' for Inactive)
REMARK    1  A    between atoms: _1  and  _3
REMARK    2  A    between atoms: _3  and  _4
REMARK    3  A    between atoms: _3  and  _6
REMARK    4  A    between atoms: _6  and  _7
REMARK    5  A    between atoms: _7  and  _8
REMARK    6  A    between atoms: _8  and  _9
REMARK    7  A    between atoms: _18  and  _20
REMARK    8  A    between atoms: _20  and  _21
REMARK    9  A    between atoms: _20  and  _23
REMARK   10  A    between atoms: _23  and  _24
REMARK   11  A    between atoms: _30  and  _32
REMARK   12  A    between atoms: _32  and  _33
REMARK   13  A    between atoms: _32  and  _35
REMARK   14  A    between atoms: _35  and  _36
REMARK   15  A    between atoms: _39  and  _41
REMARK   16  A    between atoms: _41  and  _42
REMARK   17  A    between atoms: _41  and  _44
REMARK   18  A    between atoms: _44  and  _45
REMARK   19  A    between atoms: _48  and  _50
REMARK   20  A    between atoms: _50  and  _51
REMARK   21  A    between atoms: _50  and  _53
REMARK   22  A    between atoms: _53  and  _54
REMARK   23  A    between atoms: _57  and  _59
REMARK   24  A    between atoms: _59  and  _60
REMARK   25  A    between atoms: _59  and  _62
REMARK   26  A    between atoms: _62  and  _63
REMARK   27  A    between atoms: _66  and  _68
REMARK   28  A    between atoms: _68  and  _69
REMARK   29  A    between atoms: _71  and  _73
REMARK   30  A    between atoms: _73  and  _74
REMARK   31  A    between atoms: _77  and  _79
REMARK   32  A    between atoms: _79  and  _80
REMARK   33  A    between atoms: _79  and  _82
REMARK   34  A    between atoms: _82  and  _83
REMARK   35  A    between atoms: _86  and  _88
REMARK   36  A    between atoms: _88  and  _89
REMARK   37  A    between atoms: _88  and  _91
REMARK   38  A    between atoms: _91  and  _92
REMARK   39  A    between atoms: _97  and  _99
REMARK   40  A    between atoms: _99  and  _100
REMARK   41  A    between atoms: _99  and  _102
REMARK   42  A    between atoms: _102  and  _103
REMARK   43  A    between atoms: _106  and  _108
REMARK   44  A    between atoms: _108  and  _109
REMARK   45  A    between atoms: _108  and  _111
REMARK   46  A    between atoms: _111  and  _112
REMARK   47  A    between atoms: _115  and  _117
REMARK   48  A    between atoms: _117  and  _118
REMARK   49  A    between atoms: _117  and  _120
REMARK   50  A    between atoms: _120  and  _121
REMARK   51  A    between atoms: _121  and  _122
REMARK   52  A    between atoms: _122  and  _123
REMARK   53  A    between atoms: _123  and  _124
REMARK   54  A    between atoms: _128  and  _130
REMARK   55  A    between atoms: _130  and  _131
REMARK   56  A    between atoms: _130  and  _133
REMARK   57  A    between atoms: _133  and  _134
REMARK   58  A    between atoms: _134  and  _135
REMARK   59  A    between atoms: _137  and  _139
REMARK   60  A    between atoms: _139  and  _140
REMARK   61  A    between atoms: _139  and  _142
REMARK   62  A    between atoms: _145  and  _147
REMARK   63  A    between atoms: _147  and  _148
REMARK   64  A    between atoms: _150  and  _152
REMARK   65  A    between atoms: _152  and  _153
REMARK   66  A    between atoms: _155  and  _157
REMARK   67  A    between atoms: _157  and  _158
REMARK   68  A    between atoms: _157  and  _160
REMARK   69  A    between atoms: _160  and  _161
REMARK   70  A    between atoms: _164  and  _166
REMARK   71  A    between atoms: _166  and  _167
REMARK   72  A    between atoms: _169  and  _171
REMARK   73  A    between atoms: _171  and  _172
REMARK   74  A    between atoms: _174  and  _176
REMARK   75  A    between atoms: _176  and  _177
REMARK   76  A    between atoms: _176  and  _179
REMARK   77  A    between atoms: _179  and  _180
REMARK   78  A    between atoms: _186  and  _188
REMARK   79  A    between atoms: _188  and  _189
REMARK   80  A    between atoms: _188  and  _191
REMARK   81  A    between atoms: _191  and  _192
REMARK   82  A    between atoms: _195  and  _197
REMARK   83  A    between atoms: _197  and  _198
REMARK   84  A    between atoms: _197  and  _200
REMARK   85  A    between atoms: _200  and  _201
REMARK   86  A    between atoms: _204  and  _206
REMARK   87  A    between atoms: _206  and  _207
REMARK   88  A    between atoms: _206  and  _209
REMARK   89  A    between atoms: _209  and  _210
REMARK   90  A    between atoms: _214  and  _215
REMARK   91  A    between atoms: _220  and  _222
REMARK   92  A    between atoms: _222  and  _223
REMARK   93  A    between atoms: _222  and  _225
REMARK   94  A    between atoms: _228  and  _230
REMARK   95  A    between atoms: _230  and  _231
REMARK   96  A    between atoms: _230  and  _233
REMARK   97  A    between atoms: _233  and  _234
REMARK   98  A    between atoms: _239  and  _241
REMARK   99  A    between atoms: _241  and  _242
REMARK  100  A    between atoms: _241  and  _244
REMARK  101  A    between atoms: _247  and  _249
REMARK  102  A    between atoms: _249  and  _250
REMARK  103  A    between atoms: _249  and  _252
REMARK  104  A    between atoms: _252  and  _253
REMARK  105  A    between atoms: _256  and  _258
REMARK  106  A    between atoms: _258  and  _259
REMARK  107  A    between atoms: _261  and  _263
REMARK  108  A    between atoms: _263  and  _264
REMARK  109  A    between atoms: _263  and  _266
REMARK  110  A    between atoms: _266  and  _267
REMARK  111  A    between atoms: _267  and  _268
REMARK  112  A    between atoms: _268  and  _269
REMARK  113  A    between atoms: _278  and  _280
REMARK  114  A    between atoms: _280  and  _281
REMARK  115  A    between atoms: _280  and  _283
REMARK  116  A    between atoms: _283  and  _284
REMARK  117  A    between atoms: _287  and  _289
REMARK  118  A    between atoms: _289  and  _290
REMARK  119  A    between atoms: _289  and  _292
REMARK  120  A    between atoms: _292  and  _293
REMARK  121  A    between atoms: _293  and  _294
REMARK  122  A    between atoms: _294  and  _295
REMARK  123  A    between atoms: _304  and  _306
REMARK  124  A    between atoms: _306  and  _307
REMARK  125  A    between atoms: _306  and  _309
REMARK  126  A    between atoms: _309  and  _310
REMARK  127  A    between atoms: _316  and  _318
REMARK  128  A    between atoms: _318  and  _319
REMARK  129  A    between atoms: _318  and  _321
REMARK  130  A    between atoms: _321  and  _322
REMARK  131  A    between atoms: _325  and  _327
REMARK  132  A    between atoms: _327  and  _328
REMARK  133  A    between atoms: _327  and  _330
REMARK  134  A    between atoms: _330  and  _331
REMARK  135  A    between atoms: _334  and  _336
REMARK  136  A    between atoms: _336  and  _337
REMARK  137  A    between atoms: _336  and  _339
REMARK  138  A    between atoms: _339  and  _340
REMARK  139  A    between atoms: _343  and  _345
REMARK  140  A    between atoms: _345  and  _346
REMARK  141  A    between atoms: _345  and  _348
REMARK  142  A    between atoms: _348  and  _349
REMARK  143  A    between atoms: _352  and  _354
REMARK  144  A    between atoms: _354  and  _355
REMARK  145  A    between atoms: _357  and  _359
REMARK  146  A    between atoms: _359  and  _360
REMARK  147  A    between atoms: _363  and  _365
REMARK  148  A    between atoms: _365  and  _366
REMARK  149  A    between atoms: _365  and  _368
REMARK  150  A    between atoms: _368  and  _369
REMARK  151  A    between atoms: _372  and  _374
REMARK  152  A    between atoms: _374  and  _375
REMARK  153  A    between atoms: _374  and  _377
REMARK  154  A    between atoms: _377  and  _378
REMARK  155  A    between atoms: _383  and  _385
REMARK  156  A    between atoms: _385  and  _386
REMARK  157  A    between atoms: _385  and  _388
REMARK  158  A    between atoms: _388  and  _389
REMARK  159  A    between atoms: _392  and  _394
REMARK  160  A    between atoms: _394  and  _395
REMARK  161  A    between atoms: _394  and  _397
REMARK  162  A    between atoms: _397  and  _398
REMARK  163  A    between atoms: _401  and  _403
REMARK  164  A    between atoms: _403  and  _404
REMARK  165  A    between atoms: _403  and  _406
REMARK  166  A    between atoms: _406  and  _407
REMARK  167  A    between atoms: _407  and  _408
REMARK  168  A    between atoms: _408  and  _409
REMARK  169  A    between atoms: _409  and  _410
REMARK  170  A    between atoms: _414  and  _416
REMARK  171  A    between atoms: _416  and  _417
REMARK  172  A    between atoms: _416  and  _419
REMARK  173  A    between atoms: _419  and  _420
REMARK  174  A    between atoms: _420  and  _421
REMARK  175  A    between atoms: _423  and  _425
REMARK  176  A    between atoms: _425  and  _426
REMARK  177  A    between atoms: _425  and  _428
REMARK  178  A    between atoms: _431  and  _433
REMARK  179  A    between atoms: _433  and  _434
REMARK  180  A    between atoms: _436  and  _438
REMARK  181  A    between atoms: _438  and  _439
REMARK  182  A    between atoms: _441  and  _443
REMARK  183  A    between atoms: _443  and  _444
REMARK  184  A    between atoms: _443  and  _446
REMARK  185  A    between atoms: _446  and  _447
REMARK  186  A    between atoms: _450  and  _452
REMARK  187  A    between atoms: _452  and  _453
REMARK  188  A    between atoms: _455  and  _457
REMARK  189  A    between atoms: _457  and  _458
REMARK  190  A    between atoms: _460  and  _462
REMARK  191  A    between atoms: _462  and  _463
REMARK  192  A    between atoms: _462  and  _465
REMARK  193  A    between atoms: _465  and  _466
REMARK  194  A    between atoms: _472  and  _474
REMARK  195  A    between atoms: _474  and  _475
REMARK  196  A    between atoms: _474  and  _477
REMARK  197  A    between atoms: _477  and  _478
REMARK  198  A    between atoms: _481  and  _483
REMARK  199  A    between atoms: _483  and  _484
REMARK  200  A    between atoms: _483  and  _486
REMARK  201  A    between atoms: _486  and  _487
REMARK  202  A    between atoms: _490  and  _492
REMARK  203  A    between atoms: _492  and  _493
REMARK  204  A    between atoms: _492  and  _495
REMARK  205  A    between atoms: _495  and  _496
REMARK  206  A    between atoms: _500  and  _501
REMARK  207  A    between atoms: _506  and  _508
REMARK  208  A    between atoms: _508  and  _509
REMARK  209  A    between atoms: _508  and  _511
REMARK  210  A    between atoms: _514  and  _516
REMARK  211  A    between atoms: _516  and  _517
REMARK  212  A    between atoms: _516  and  _519
REMARK  213  A    between atoms: _519  and  _520
REMARK  214  A    between atoms: _525  and  _527
REMARK  215  A    between atoms: _527  and  _528
REMARK  216  A    between atoms: _527  and  _530
REMARK  217  A    between atoms: _533  and  _535
REMARK  218  A    between atoms: _535  and  _536
REMARK  219  A    between atoms: _535  and  _538
REMARK  220  A    between atoms: _538  and  _539
REMARK  221  A    between atoms: _542  and  _544
REMARK  222  A    between atoms: _544  and  _545
REMARK  223  A    between atoms: _547  and  _549
REMARK  224  A    between atoms: _549  and  _550
REMARK  225  A    between atoms: _549  and  _552
REMARK  226  A    between atoms: _552  and  _553
REMARK  227  A    between atoms: _553  and  _554
REMARK  228  A    between atoms: _554  and  _555
REMARK  229  A    between atoms: _564  and  _566
REMARK  230  A    between atoms: _566  and  _567
REMARK  231  A    between atoms: _566  and  _569
REMARK  232  A    between atoms: _569  and  _570
REMARK                            x       y       z     vdW  Elec       q    Type
REMARK                         _______ _______ _______ _____ _____    ______ ____
ROOT
ATOM      1  C   GLY A   5      -3.707 -12.106  -1.119  0.00  0.00    +0.243 C 
ATOM      2  O   GLY A   5      -2.647 -11.467  -1.093  0.00  0.00    -0.273 OA
ATOM      3  N   ILE A   6      -4.333 -12.340  -2.163  0.00  0.00    -0.297 N 
ATOM      4  H   ILE A   6      -5.278 -12.771  -2.211  0.00  0.00    +0.150 HD
ENDROOT
BRANCH   1   5
ATOM      5  CA  GLY A   5      -4.330 -12.643   0.109  0.00  0.00    +0.176 C 
BRANCH   5   8
ATOM      6  C   GLY A   4      -3.724 -12.399   2.410  0.00  0.00    +0.243 C 
ATOM      7  O   GLY A   4      -4.078 -13.538   2.651  0.00  0.00    -0.273 OA
ATOM      8  N   GLY A   5      -3.884 -11.816   1.213  0.00  0.00    -0.295 N 
ATOM      9  H   GLY A   5      -3.694 -10.802   1.081  0.00  0.00    +0.150 HD
BRANCH   6  10
ATOM     10  CA  GLY A   4      -3.045 -11.578   3.468  0.00  0.00    +0.176 C 
BRANCH  10  13
ATOM     11  C   VAL A   3      -4.213 -10.855   5.487  0.00  0.00    +0.241 C 
ATOM     12  O   VAL A   3      -4.428  -9.761   5.004  0.00  0.00    -0.273 OA
ATOM     13  N   GLY A   4      -3.665 -11.839   4.789  0.00  0.00    -0.295 N 
ATOM     14  H   GLY A   4      -3.670 -12.806   5.172  0.00  0.00    +0.150 HD
BRANCH  11  15
ATOM     15  CA  VAL A   3      -4.639 -11.123   6.899  0.00  0.00    +0.149 C 
BRANCH  15  18
ATOM     16  C   MET A   2      -4.021  -9.971   9.061  0.00  0.00    +0.241 C 
ATOM     17  O   MET A   2      -3.454 -11.025   9.453  0.00  0.00    -0.273 OA
ATOM     18  N   VAL A   3      -4.605  -9.957   7.857  0.00  0.00    -0.297 N 
ATOM     19  H   VAL A   3      -5.071  -9.076   7.559  0.00  0.00    +0.150 HD
BRANCH  16  20
ATOM     20  CA  MET A   2      -3.831  -8.670   9.801  0.00  0.00    +0.149 C 
BRANCH  20  23
ATOM     21  C   LYS A   1      -4.800  -8.417  12.040  0.00  0.00    +0.238 C 
ATOM     22  O   LYS A   1      -5.497  -7.486  11.651  0.00  0.00    -0.274 OA
ATOM     23  N   MET A   2      -3.881  -8.966  11.240  0.00  0.00    -0.297 N 
ATOM     24  H   MET A   2      -3.182  -9.620  11.647  0.00  0.00    +0.150 HD
BRANCH  21  25
ATOM     25  CA  LYS A   1      -4.931  -8.983  13.449  0.00  0.00    +0.145 C 
BRANCH  25  26
ATOM     26  N   LYS A   1      -5.559  -7.967  14.309  0.00  0.00    -0.238 NA
ATOM     27  H   LYS A   1      -6.207  -7.277  13.879  0.00  0.00    +0.142 HD
ENDBRANCH  25  26
BRANCH  25  28
ATOM     28  CB  LYS A   1      -5.860 -10.185  13.438  0.00  0.00    +0.026 C 
BRANCH  28  29
ATOM     29  CG  LYS A   1      -5.800 -11.051  14.672  0.00  0.00    -0.000 C 
BRANCH  29  30
ATOM     30  CD  LYS A   1      -6.149 -12.520  14.313  0.00  0.00    -0.024 C 
BRANCH  30  31
ATOM     31  CE  LYS A   1      -5.519 -12.998  12.950  0.00  0.00    -0.086 C 
BRANCH  31  32
ATOM     32  NZ  LYS A   1      -4.986 -14.430  12.769  0.00  0.00    +0.380 N 
ATOM     33  HZ1 LYS A   1      -4.226 -14.605  13.457  0.00  0.00    -0.089 HD
ATOM     34  HZ2 LYS A   1      -5.759 -15.108  12.925  0.00  0.00    -0.089 HD
ATOM     35  HZ3 LYS A   1      -4.615 -14.541  11.804  0.00  0.00    -0.089 HD
ENDBRANCH  31  32
ENDBRANCH  30  31
ENDBRANCH  29  30
ENDBRANCH  28  29
ENDBRANCH  25  28
ENDBRANCH  21  25
ENDBRANCH  20  23
BRANCH  20  36
ATOM     36  CB  MET A   2      -2.535  -7.976   9.386  0.00  0.00    +0.041 C 
BRANCH  36  37
ATOM     37  CG  MET A   2      -2.340  -6.581  10.154  0.00  0.00    +0.060 C 
BRANCH  37  38
ATOM     38  SD  MET A   2      -1.074  -5.669   9.347  0.00  0.00    -0.139 S 
ATOM     39  CE  MET A   2      -0.712  -4.464  10.698  0.00  0.00    +0.069 C 
ENDBRANCH  37  38
ENDBRANCH  36  37
ENDBRANCH  20  36
ENDBRANCH  16  20
ENDBRANCH  15  18
BRANCH  15  40
ATOM     40  CB  VAL A   3      -6.020 -11.904   6.848  0.00  0.00    +0.027 C 
ATOM     41  CG2 VAL A   3      -6.534 -12.049   8.221  0.00  0.00    +0.002 C 
ATOM     42  CG1 VAL A   3      -7.085 -11.123   6.035  0.00  0.00    +0.002 C 
ENDBRANCH  15  40
ENDBRANCH  11  15
ENDBRANCH  10  13
ENDBRANCH   6  10
ENDBRANCH   5   8
ENDBRANCH   1   5
BRANCH   3  43
ATOM     43  CA  ILE A   6      -3.598 -11.948  -3.232  0.00  0.00    +0.149 C 
BRANCH  43  44
ATOM     44  C   ILE A   6      -3.676 -10.412  -3.052  0.00  0.00    +0.241 C 
ATOM     45  O   ILE A   6      -4.103  -9.977  -2.044  0.00  0.00    -0.273 OA
ATOM     46  N   GLY A   7      -3.265  -9.577  -3.961  0.00  0.00    -0.295 N 
ATOM     47  H   GLY A   7      -2.870  -9.922  -4.859  0.00  0.00    +0.150 HD
BRANCH  46  48
ATOM     48  CA  GLY A   7      -3.370  -8.150  -3.695  0.00  0.00    +0.176 C 
BRANCH  48  49
ATOM     49  C   GLY A   7      -2.655  -7.477  -2.519  0.00  0.00    +0.243 C 
ATOM     50  N   GLY A   8      -2.364  -8.167  -1.432  0.00  0.00    -0.295 N 
ATOM     51  H   GLY A   8      -2.427  -9.204  -1.479  0.00  0.00    +0.150 HD
ATOM     52  O   GLY A   7      -2.371  -6.272  -2.632  0.00  0.00    -0.273 OA
BRANCH  50  53
ATOM     53  CA  GLY A   8      -1.967  -7.571  -0.192  0.00  0.00    +0.176 C 
BRANCH  53  54
ATOM     54  C   GLY A   8      -2.614  -8.090   1.097  0.00  0.00    +0.243 C 
ATOM     55  N   PHE A   9      -2.483  -7.301   2.143  0.00  0.00    -0.297 N 
ATOM     56  H   PHE A   9      -1.904  -6.451   1.989  0.00  0.00    +0.150 HD
ATOM     57  O   GLY A   8      -3.163  -9.128   1.134  0.00  0.00    -0.273 OA
BRANCH  55  58
ATOM     58  CA  PHE A   9      -3.055  -7.453   3.542  0.00  0.00    +0.153 C 
BRANCH  58  59
ATOM     59  C   PHE A   9      -4.166  -6.481   3.985  0.00  0.00    +0.241 C 
ATOM     60  N   LEU A  10      -5.144  -7.039   4.712  0.00  0.00    -0.298 N 
ATOM     61  H   LEU A  10      -5.059  -8.057   4.905  0.00  0.00    +0.150 HD
ATOM     62  O   PHE A   9      -4.085  -5.274   3.734  0.00  0.00    -0.273 OA
BRANCH  60  63
ATOM     63  CA  LEU A  10      -6.294  -6.376   5.250  0.00  0.00    +0.137 C 
BRANCH  63  64
ATOM     64  C   LEU A  10      -6.132  -6.335   6.771  0.00  0.00    +0.227 C 
ATOM     65  O   LEU A  10      -5.874  -7.384   7.428  0.00  0.00    -0.286 OA
ENDBRANCH  63  64
BRANCH  63  66
ATOM     66  CB  LEU A  10      -7.537  -7.237   4.916  0.00  0.00    +0.028 C 
BRANCH  66  67
ATOM     67  CG  LEU A  10      -8.953  -6.748   5.323  0.00  0.00    +0.002 C 
ATOM     68  CD2 LEU A  10      -9.910  -7.933   5.232  0.00  0.00    +0.000 C 
ATOM     69  CD1 LEU A  10      -9.372  -5.620   4.416  0.00  0.00    +0.000 C 
ENDBRANCH  66  67
ENDBRANCH  63  66
ENDBRANCH  60  63
ENDBRANCH  58  59
BRANCH  58  70
ATOM     70  CB  PHE A   9      -1.964  -7.369   4.635  0.00  0.00    +0.055 C 
BRANCH  70  71
ATOM     71  CG  PHE A   9      -1.129  -8.565   4.762  0.00  0.00    -0.020 A 
ATOM     72  CD2 PHE A   9      -1.019  -9.268   5.951  0.00  0.00    -0.004 A 
ATOM     73  CE2 PHE A   9      -0.224 -10.365   6.028  0.00  0.00    -0.000 A 
ATOM     74  CZ  PHE A   9       0.540 -10.756   4.946  0.00  0.00    -0.000 A 
ATOM     75  CE1 PHE A   9       0.452 -10.095   3.823  0.00  0.00    -0.000 A 
ATOM     76  CD1 PHE A   9      -0.341  -8.964   3.712  0.00  0.00    -0.004 A 
ENDBRANCH  70  71
ENDBRANCH  58  70
ENDBRANCH  55  58
ENDBRANCH  53  54
ENDBRANCH  50  53
ENDBRANCH  48  49
ENDBRANCH  46  48
ENDBRANCH  43  44
BRANCH  43  77
ATOM     77  CB  ILE A   6      -4.180 -12.426  -4.443  0.00  0.00    +0.027 C 
ATOM     78  CG2 ILE A   6      -4.364 -13.883  -4.492  0.00  0.00    +0.002 C 
BRANCH  77  79
ATOM     79  CG1 ILE A   6      -5.387 -11.725  -4.682  0.00  0.00    +0.002 C 
ATOM     80  CD1 ILE A   6      -5.313 -11.489  -6.062  0.00  0.00    +0.000 C 
ENDBRANCH  77  79
ENDBRANCH  43  77
ENDBRANCH   3  43
TORSDOF 35
REMARK  Name = ../refined-set-2016/4ye3/4ye3_pocket.pdb
REMARK  232 active torsions:
REMARK  status: ('A' for Active; 'I' for Inactive)
REMARK    1  A    between atoms: _1  and  _3
REMARK    2  A    between atoms: _3  and  _4
REMARK    3  A    between atoms: _3  and  _6
REMARK    4  A    between atoms: _6  and  _7
REMARK    5  A    between atoms: _7  and  _8
REMARK    6  A    between atoms: _8  and  _9
REMARK    7  A    between atoms: _18  and  _20
REMARK    8  A    between atoms: _20  and  _21
REMARK    9  A    between atoms: _20  and  _23
REMARK   10  A    between atoms: _23  and  _24
REMARK   11  A    between atoms: _30  and  _32
REMARK   12  A    between atoms: _32  and  _33
REMARK   13  A    between atoms: _32  and  _35
REMARK   14  A    between atoms: _35  and  _36
REMARK   15  A    between atoms: _39  and  _41
REMARK   16  A    between atoms: _41  and  _42
REMARK   17  A    between atoms: _41  and  _44
REMARK   18  A    between atoms: _44  and  _45
REMARK   19  A    between atoms: _48  and  _50
REMARK   20  A    between atoms: _50  and  _51
REMARK   21  A    between atoms: _50  and  _53
REMARK   22  A    between atoms: _53  and  _54
REMARK   23  A    between atoms: _57  and  _59
REMARK   24  A    between atoms: _59  and  _60
REMARK   25  A    between atoms: _59  and  _62
REMARK   26  A    between atoms: _62  and  _63
REMARK   27  A    between atoms: _66  and  _68
REMARK   28  A    between atoms: _68  and  _69
REMARK   29  A    between atoms: _71  and  _73
REMARK   30  A    between atoms: _73  and  _74
REMARK   31  A    between atoms: _77  and  _79
REMARK   32  A    between atoms: _79  and  _80
REMARK   33  A    between atoms: _79  and  _82
REMARK   34  A    between atoms: _82  and  _83
REMARK   35  A    between atoms: _86  and  _88
REMARK   36  A    between atoms: _88  and  _89
REMARK   37  A    between atoms: _88  and  _91
REMARK   38  A    between atoms: _91  and  _92
REMARK   39  A    between atoms: _97  and  _99
REMARK   40  A    between atoms: _99  and  _100
REMARK   41  A    between atoms: _99  and  _102
REMARK   42  A    between atoms: _102  and  _103
REMARK   43  A    between atoms: _106  and  _108
REMARK   44  A    between atoms: _108  and  _109
REMARK   45  A    between atoms: _108  and  _111
REMARK   46  A    between atoms: _111  and  _112
REMARK   47  A    between atoms: _115  and  _117
REMARK   48  A    between atoms: _117  and  _118
REMARK   49  A    between atoms: _117  and  _120
REMARK   50  A    between atoms: _120  and  _121
REMARK   51  A    between atoms: _121  and  _122
REMARK   52  A    between atoms: _122  and  _123
REMARK   53  A    between atoms: _123  and  _124
REMARK   54  A    between atoms: _128  and  _130
REMARK   55  A    between atoms: _130  and  _131
REMARK   56  A    between atoms: _130  and  _133
REMARK   57  A    between atoms: _133  and  _134
REMARK   58  A    between atoms: _134  and  _135
REMARK   59  A    between atoms: _137  and  _139
REMARK   60  A    between atoms: _139  and  _140
REMARK   61  A    between atoms: _139  and  _142
REMARK   62  A    between atoms: _145  and  _147
REMARK   63  A    between atoms: _147  and  _148
REMARK   64  A    between atoms: _150  and  _152
REMARK   65  A    between atoms: _152  and  _153
REMARK   66  A    between atoms: _155  and  _157
REMARK   67  A    between atoms: _157  and  _158
REMARK   68  A    between atoms: _157  and  _160
REMARK   69  A    between atoms: _160  and  _161
REMARK   70  A    between atoms: _164  and  _166
REMARK   71  A    between atoms: _166  and  _167
REMARK   72  A    between atoms: _169  and  _171
REMARK   73  A    between atoms: _171  and  _172
REMARK   74  A    between atoms: _174  and  _176
REMARK   75  A    between atoms: _176  and  _177
REMARK   76  A    between atoms: _176  and  _179
REMARK   77  A    between atoms: _179  and  _180
REMARK   78  A    between atoms: _186  and  _188
REMARK   79  A    between atoms: _188  and  _189
REMARK   80  A    between atoms: _188  and  _191
REMARK   81  A    between atoms: _191  and  _192
REMARK   82  A    between atoms: _195  and  _197
REMARK   83  A    between atoms: _197  and  _198
REMARK   84  A    between atoms: _197  and  _200
REMARK   85  A    between atoms: _200  and  _201
REMARK   86  A    between atoms: _204  and  _206
REMARK   87  A    between atoms: _206  and  _207
REMARK   88  A    between atoms: _206  and  _209
REMARK   89  A    between atoms: _209  and  _210
REMARK   90  A    between atoms: _214  and  _215
REMARK   91  A    between atoms: _220  and  _222
REMARK   92  A    between atoms: _222  and  _223
REMARK   93  A    between atoms: _222  and  _225
REMARK   94  A    between atoms: _228  and  _230
REMARK   95  A    between atoms: _230  and  _231
REMARK   96  A    between atoms: _230  and  _233
REMARK   97  A    between atoms: _233  and  _234
REMARK   98  A    between atoms: _239  and  _241
REMARK   99  A    between atoms: _241  and  _242
REMARK  100  A    between atoms: _241  and  _244
REMARK  101  A    between atoms: _247  and  _249
REMARK  102  A    between atoms: _249  and  _250
REMARK  103  A    between atoms: _249  and  _252
REMARK  104  A    between atoms: _252  and  _253
REMARK  105  A    between atoms: _256  and  _258
REMARK  106  A    between atoms: _258  and  _259
REMARK  107  A    between atoms: _261  and  _263
REMARK  108  A    between atoms: _263  and  _264
REMARK  109  A    between atoms: _263  and  _266
REMARK  110  A    between atoms: _266  and  _267
REMARK  111  A    between atoms: _267  and  _268
REMARK  112  A    between atoms: _268  and  _269
REMARK  113  A    between atoms: _278  and  _280
REMARK  114  A    between atoms: _280  and  _281
REMARK  115  A    between atoms: _280  and  _283
REMARK  116  A    between atoms: _283  and  _284
REMARK  117  A    between atoms: _287  and  _289
REMARK  118  A    between atoms: _289  and  _290
REMARK  119  A    between atoms: _289  and  _292
REMARK  120  A    between atoms: _292  and  _293
REMARK  121  A    between atoms: _293  and  _294
REMARK  122  A    between atoms: _294  and  _295
REMARK  123  A    between atoms: _304  and  _306
REMARK  124  A    between atoms: _306  and  _307
REMARK  125  A    between atoms: _306  and  _309
REMARK  126  A    between atoms: _309  and  _310
REMARK  127  A    between atoms: _316  and  _318
REMARK  128  A    between atoms: _318  and  _319
REMARK  129  A    between atoms: _318  and  _321
REMARK  130  A    between atoms: _321  and  _322
REMARK  131  A    between atoms: _325  and  _327
REMARK  132  A    between atoms: _327  and  _328
REMARK  133  A    between atoms: _327  and  _330
REMARK  134  A    between atoms: _330  and  _331
REMARK  135  A    between atoms: _334  and  _336
REMARK  136  A    between atoms: _336  and  _337
REMARK  137  A    between atoms: _336  and  _339
REMARK  138  A    between atoms: _339  and  _340
REMARK  139  A    between atoms: _343  and  _345
REMARK  140  A    between atoms: _345  and  _346
REMARK  141  A    between atoms: _345  and  _348
REMARK  142  A    between atoms: _348  and  _349
REMARK  143  A    between atoms: _352  and  _354
REMARK  144  A    between atoms: _354  and  _355
REMARK  145  A    between atoms: _357  and  _359
REMARK  146  A    between atoms: _359  and  _360
REMARK  147  A    between atoms: _363  and  _365
REMARK  148  A    between atoms: _365  and  _366
REMARK  149  A    between atoms: _365  and  _368
REMARK  150  A    between atoms: _368  and  _369
REMARK  151  A    between atoms: _372  and  _374
REMARK  152  A    between atoms: _374  and  _375
REMARK  153  A    between atoms: _374  and  _377
REMARK  154  A    between atoms: _377  and  _378
REMARK  155  A    between atoms: _383  and  _385
REMARK  156  A    between atoms: _385  and  _386
REMARK  157  A    between atoms: _385  and  _388
REMARK  158  A    between atoms: _388  and  _389
REMARK  159  A    between atoms: _392  and  _394
REMARK  160  A    between atoms: _394  and  _395
REMARK  161  A    between atoms: _394  and  _397
REMARK  162  A    between atoms: _397  and  _398
REMARK  163  A    between atoms: _401  and  _403
REMARK  164  A    between atoms: _403  and  _404
REMARK  165  A    between atoms: _403  and  _406
REMARK  166  A    between atoms: _406  and  _407
REMARK  167  A    between atoms: _407  and  _408
REMARK  168  A    between atoms: _408  and  _409
REMARK  169  A    between atoms: _409  and  _410
REMARK  170  A    between atoms: _414  and  _416
REMARK  171  A    between atoms: _416  and  _417
REMARK  172  A    between atoms: _416  and  _419
REMARK  173  A    between atoms: _419  and  _420
REMARK  174  A    between atoms: _420  and  _421
REMARK  175  A    between atoms: _423  and  _425
REMARK  176  A    between atoms: _425  and  _426
REMARK  177  A    between atoms: _425  and  _428
REMARK  178  A    between atoms: _431  and  _433
REMARK  179  A    between atoms: _433  and  _434
REMARK  180  A    between atoms: _436  and  _438
REMARK  181  A    between atoms: _438  and  _439
REMARK  182  A    between atoms: _441  and  _443
REMARK  183  A    between atoms: _443  and  _444
REMARK  184  A    between atoms: _443  and  _446
REMARK  185  A    between atoms: _446  and  _447
REMARK  186  A    between atoms: _450  and  _452
REMARK  187  A    between atoms: _452  and  _453
REMARK  188  A    between atoms: _455  and  _457
REMARK  189  A    between atoms: _457  and  _458
REMARK  190  A    between atoms: _460  and  _462
REMARK  191  A    between atoms: _462  and  _463
REMARK  192  A    between atoms: _462  and  _465
REMARK  193  A    between atoms: _465  and  _466
REMARK  194  A    between atoms: _472  and  _474
REMARK  195  A    between atoms: _474  and  _475
REMARK  196  A    between atoms: _474  and  _477
REMARK  197  A    between atoms: _477  and  _478
REMARK  198  A    between atoms: _481  and  _483
REMARK  199  A    between atoms: _483  and  _484
REMARK  200  A    between atoms: _483  and  _486
REMARK  201  A    between atoms: _486  and  _487
REMARK  202  A    between atoms: _490  and  _492
REMARK  203  A    between atoms: _492  and  _493
REMARK  204  A    between atoms: _492  and  _495
REMARK  205  A    between atoms: _495  and  _496
REMARK  206  A    between atoms: _500  and  _501
REMARK  207  A    between atoms: _506  and  _508
REMARK  208  A    between atoms: _508  and  _509
REMARK  209  A    between atoms: _508  and  _511
REMARK  210  A    between atoms: _514  and  _516
REMARK  211  A    between atoms: _516  and  _517
REMARK  212  A    between atoms: _516  and  _519
REMARK  213  A    between atoms: _519  and  _520
REMARK  214  A    between atoms: _525  and  _527
REMARK  215  A    between atoms: _527  and  _528
REMARK  216  A    between atoms: _527  and  _530
REMARK  217  A    between atoms: _533  and  _535
REMARK  218  A    between atoms: _535  and  _536
REMARK  219  A    between atoms: _535  and  _538
REMARK  220  A    between atoms: _538  and  _539
REMARK  221  A    between atoms: _542  and  _544
REMARK  222  A    between atoms: _544  and  _545
REMARK  223  A    between atoms: _547  and  _549
REMARK  224  A    between atoms: _549  and  _550
REMARK  225  A    between atoms: _549  and  _552
REMARK  226  A    between atoms: _552  and  _553
REMARK  227  A    between atoms: _553  and  _554
REMARK  228  A    between atoms: _554  and  _555
REMARK  229  A    between atoms: _564  and  _566
REMARK  230  A    between atoms: _566  and  _567
REMARK  231  A    between atoms: _566  and  _569
REMARK  232  A    between atoms: _569  and  _570
REMARK                            x       y       z     vdW  Elec       q    Type
REMARK                         _______ _______ _______ _____ _____    ______ ____
ROOT
ATOM      1  CA  LEU A   1     -12.654 -11.247  11.817  0.00  0.00    +0.133 C 
ENDROOT
BRANCH   1   2
ATOM      2  N   LEU A   1     -13.438 -12.438  12.055  0.00  0.00    -0.239 NA
ATOM      3  H   LEU A   1     -13.556 -13.137  11.294  0.00  0.00    +0.142 HD
ENDBRANCH   1   2
BRANCH   1   4
ATOM      4  C   LEU A   1     -13.538 -10.193  11.162  0.00  0.00    +0.224 C 
ATOM      5  O   LEU A   1     -14.390 -10.532  10.315  0.00  0.00    -0.287 OA
ENDBRANCH   1   4
BRANCH   1   6
ATOM      6  CB  LEU A   1     -11.490 -11.538  10.867  0.00  0.00    +0.025 C 
BRANCH   6   7
ATOM      7  CG  LEU A   1     -10.585 -12.732  11.298  0.00  0.00    +0.002 C 
ATOM      8  CD2 LEU A   1     -10.054 -12.488  12.687  0.00  0.00    +0.000 C 
ATOM      9  CD1 LEU A   1      -9.521 -12.929  10.226  0.00  0.00    +0.000 C 
ENDBRANCH   6   7
ENDBRANCH   1   6
TORSDOF 4
REMARK  Name = ../refined-set-2016/4ye3/4ye3_pocket.pdb
REMARK  232 active torsions:
REMARK  status: ('A' for Active; 'I' for Inactive)
REMARK    1  A    between atoms: _1  and  _3
REMARK    2  A    between atoms: _3  and  _4
REMARK    3  A    between atoms: _3  and  _6
REMARK    4  A    between atoms: _6  and  _7
REMARK    5  A    between atoms: _7  and  _8
REMARK    6  A    between atoms: _8  and  _9
REMARK    7  A    between atoms: _18  and  _20
REMARK    8  A    between atoms: _20  and  _21
REMARK    9  A    between atoms: _20  and  _23
REMARK   10  A    between atoms: _23  and  _24
REMARK   11  A    between atoms: _30  and  _32
REMARK   12  A    between atoms: _32  and  _33
REMARK   13  A    between atoms: _32  and  _35
REMARK   14  A    between atoms: _35  and  _36
REMARK   15  A    between atoms: _39  and  _41
REMARK   16  A    between atoms: _41  and  _42
REMARK   17  A    between atoms: _41  and  _44
REMARK   18  A    between atoms: _44  and  _45
REMARK   19  A    between atoms: _48  and  _50
REMARK   20  A    between atoms: _50  and  _51
REMARK   21  A    between atoms: _50  and  _53
REMARK   22  A    between atoms: _53  and  _54
REMARK   23  A    between atoms: _57  and  _59
REMARK   24  A    between atoms: _59  and  _60
REMARK   25  A    between atoms: _59  and  _62
REMARK   26  A    between atoms: _62  and  _63
REMARK   27  A    between atoms: _66  and  _68
REMARK   28  A    between atoms: _68  and  _69
REMARK   29  A    between atoms: _71  and  _73
REMARK   30  A    between atoms: _73  and  _74
REMARK   31  A    between atoms: _77  and  _79
REMARK   32  A    between atoms: _79  and  _80
REMARK   33  A    between atoms: _79  and  _82
REMARK   34  A    between atoms: _82  and  _83
REMARK   35  A    between atoms: _86  and  _88
REMARK   36  A    between atoms: _88  and  _89
REMARK   37  A    between atoms: _88  and  _91
REMARK   38  A    between atoms: _91  and  _92
REMARK   39  A    between atoms: _97  and  _99
REMARK   40  A    between atoms: _99  and  _100
REMARK   41  A    between atoms: _99  and  _102
REMARK   42  A    between atoms: _102  and  _103
REMARK   43  A    between atoms: _106  and  _108
REMARK   44  A    between atoms: _108  and  _109
REMARK   45  A    between atoms: _108  and  _111
REMARK   46  A    between atoms: _111  and  _112
REMARK   47  A    between atoms: _115  and  _117
REMARK   48  A    between atoms: _117  and  _118
REMARK   49  A    between atoms: _117  and  _120
REMARK   50  A    between atoms: _120  and  _121
REMARK   51  A    between atoms: _121  and  _122
REMARK   52  A    between atoms: _122  and  _123
REMARK   53  A    between atoms: _123  and  _124
REMARK   54  A    between atoms: _128  and  _130
REMARK   55  A    between atoms: _130  and  _131
REMARK   56  A    between atoms: _130  and  _133
REMARK   57  A    between atoms: _133  and  _134
REMARK   58  A    between atoms: _134  and  _135
REMARK   59  A    between atoms: _137  and  _139
REMARK   60  A    between atoms: _139  and  _140
REMARK   61  A    between atoms: _139  and  _142
REMARK   62  A    between atoms: _145  and  _147
REMARK   63  A    between atoms: _147  and  _148
REMARK   64  A    between atoms: _150  and  _152
REMARK   65  A    between atoms: _152  and  _153
REMARK   66  A    between atoms: _155  and  _157
REMARK   67  A    between atoms: _157  and  _158
REMARK   68  A    between atoms: _157  and  _160
REMARK   69  A    between atoms: _160  and  _161
REMARK   70  A    between atoms: _164  and  _166
REMARK   71  A    between atoms: _166  and  _167
REMARK   72  A    between atoms: _169  and  _171
REMARK   73  A    between atoms: _171  and  _172
REMARK   74  A    between atoms: _174  and  _176
REMARK   75  A    between atoms: _176  and  _177
REMARK   76  A    between atoms: _176  and  _179
REMARK   77  A    between atoms: _179  and  _180
REMARK   78  A    between atoms: _186  and  _188
REMARK   79  A    between atoms: _188  and  _189
REMARK   80  A    between atoms: _188  and  _191
REMARK   81  A    between atoms: _191  and  _192
REMARK   82  A    between atoms: _195  and  _197
REMARK   83  A    between atoms: _197  and  _198
REMARK   84  A    between atoms: _197  and  _200
REMARK   85  A    between atoms: _200  and  _201
REMARK   86  A    between atoms: _204  and  _206
REMARK   87  A    between atoms: _206  and  _207
REMARK   88  A    between atoms: _206  and  _209
REMARK   89  A    between atoms: _209  and  _210
REMARK   90  A    between atoms: _214  and  _215
REMARK   91  A    between atoms: _220  and  _222
REMARK   92  A    between atoms: _222  and  _223
REMARK   93  A    between atoms: _222  and  _225
REMARK   94  A    between atoms: _228  and  _230
REMARK   95  A    between atoms: _230  and  _231
REMARK   96  A    between atoms: _230  and  _233
REMARK   97  A    between atoms: _233  and  _234
REMARK   98  A    between atoms: _239  and  _241
REMARK   99  A    between atoms: _241  and  _242
REMARK  100  A    between atoms: _241  and  _244
REMARK  101  A    between atoms: _247  and  _249
REMARK  102  A    between atoms: _249  and  _250
REMARK  103  A    between atoms: _249  and  _252
REMARK  104  A    between atoms: _252  and  _253
REMARK  105  A    between atoms: _256  and  _258
REMARK  106  A    between atoms: _258  and  _259
REMARK  107  A    between atoms: _261  and  _263
REMARK  108  A    between atoms: _263  and  _264
REMARK  109  A    between atoms: _263  and  _266
REMARK  110  A    between atoms: _266  and  _267
REMARK  111  A    between atoms: _267  and  _268
REMARK  112  A    between atoms: _268  and  _269
REMARK  113  A    between atoms: _278  and  _280
REMARK  114  A    between atoms: _280  and  _281
REMARK  115  A    between atoms: _280  and  _283
REMARK  116  A    between atoms: _283  and  _284
REMARK  117  A    between atoms: _287  and  _289
REMARK  118  A    between atoms: _289  and  _290
REMARK  119  A    between atoms: _289  and  _292
REMARK  120  A    between atoms: _292  and  _293
REMARK  121  A    between atoms: _293  and  _294
REMARK  122  A    between atoms: _294  and  _295
REMARK  123  A    between atoms: _304  and  _306
REMARK  124  A    between atoms: _306  and  _307
REMARK  125  A    between atoms: _306  and  _309
REMARK  126  A    between atoms: _309  and  _310
REMARK  127  A    between atoms: _316  and  _318
REMARK  128  A    between atoms: _318  and  _319
REMARK  129  A    between atoms: _318  and  _321
REMARK  130  A    between atoms: _321  and  _322
REMARK  131  A    between atoms: _325  and  _327
REMARK  132  A    between atoms: _327  and  _328
REMARK  133  A    between atoms: _327  and  _330
REMARK  134  A    between atoms: _330  and  _331
REMARK  135  A    between atoms: _334  and  _336
REMARK  136  A    between atoms: _336  and  _337
REMARK  137  A    between atoms: _336  and  _339
REMARK  138  A    between atoms: _339  and  _340
REMARK  139  A    between atoms: _343  and  _345
REMARK  140  A    between atoms: _345  and  _346
REMARK  141  A    between atoms: _345  and  _348
REMARK  142  A    between atoms: _348  and  _349
REMARK  143  A    between atoms: _352  and  _354
REMARK  144  A    between atoms: _354  and  _355
REMARK  145  A    between atoms: _357  and  _359
REMARK  146  A    between atoms: _359  and  _360
REMARK  147  A    between atoms: _363  and  _365
REMARK  148  A    between atoms: _365  and  _366
REMARK  149  A    between atoms: _365  and  _368
REMARK  150  A    between atoms: _368  and  _369
REMARK  151  A    between atoms: _372  and  _374
REMARK  152  A    between atoms: _374  and  _375
REMARK  153  A    between atoms: _374  and  _377
REMARK  154  A    between atoms: _377  and  _378
REMARK  155  A    between atoms: _383  and  _385
REMARK  156  A    between atoms: _385  and  _386
REMARK  157  A    between atoms: _385  and  _388
REMARK  158  A    between atoms: _388  and  _389
REMARK  159  A    between atoms: _392  and  _394
REMARK  160  A    between atoms: _394  and  _395
REMARK  161  A    between atoms: _394  and  _397
REMARK  162  A    between atoms: _397  and  _398
REMARK  163  A    between atoms: _401  and  _403
REMARK  164  A    between atoms: _403  and  _404
REMARK  165  A    between atoms: _403  and  _406
REMARK  166  A    between atoms: _406  and  _407
REMARK  167  A    between atoms: _407  and  _408
REMARK  168  A    between atoms: _408  and  _409
REMARK  169  A    between atoms: _409  and  _410
REMARK  170  A    between atoms: _414  and  _416
REMARK  171  A    between atoms: _416  and  _417
REMARK  172  A    between atoms: _416  and  _419
REMARK  173  A    between atoms: _419  and  _420
REMARK  174  A    between atoms: _420  and  _421
REMARK  175  A    between atoms: _423  and  _425
REMARK  176  A    between atoms: _425  and  _426
REMARK  177  A    between atoms: _425  and  _428
REMARK  178  A    between atoms: _431  and  _433
REMARK  179  A    between atoms: _433  and  _434
REMARK  180  A    between atoms: _436  and  _438
REMARK  181  A    between atoms: _438  and  _439
REMARK  182  A    between atoms: _441  and  _443
REMARK  183  A    between atoms: _443  and  _444
REMARK  184  A    between atoms: _443  and  _446
REMARK  185  A    between atoms: _446  and  _447
REMARK  186  A    between atoms: _450  and  _452
REMARK  187  A    between atoms: _452  and  _453
REMARK  188  A    between atoms: _455  and  _457
REMARK  189  A    between atoms: _457  and  _458
REMARK  190  A    between atoms: _460  and  _462
REMARK  191  A    between atoms: _462  and  _463
REMARK  192  A    between atoms: _462  and  _465
REMARK  193  A    between atoms: _465  and  _466
REMARK  194  A    between atoms: _472  and  _474
REMARK  195  A    between atoms: _474  and  _475
REMARK  196  A    between atoms: _474  and  _477
REMARK  197  A    between atoms: _477  and  _478
REMARK  198  A    between atoms: _481  and  _483
REMARK  199  A    between atoms: _483  and  _484
REMARK  200  A    between atoms: _483  and  _486
REMARK  201  A    between atoms: _486  and  _487
REMARK  202  A    between atoms: _490  and  _492
REMARK  203  A    between atoms: _492  and  _493
REMARK  204  A    between atoms: _492  and  _495
REMARK  205  A    between atoms: _495  and  _496
REMARK  206  A    between atoms: _500  and  _501
REMARK  207  A    between atoms: _506  and  _508
REMARK  208  A    between atoms: _508  and  _509
REMARK  209  A    between atoms: _508  and  _511
REMARK  210  A    between atoms: _514  and  _516
REMARK  211  A    between atoms: _516  and  _517
REMARK  212  A    between atoms: _516  and  _519
REMARK  213  A    between atoms: _519  and  _520
REMARK  214  A    between atoms: _525  and  _527
REMARK  215  A    between atoms: _527  and  _528
REMARK  216  A    between atoms: _527  and  _530
REMARK  217  A    between atoms: _533  and  _535
REMARK  218  A    between atoms: _535  and  _536
REMARK  219  A    between atoms: _535  and  _538
REMARK  220  A    between atoms: _538  and  _539
REMARK  221  A    between atoms: _542  and  _544
REMARK  222  A    between atoms: _544  and  _545
REMARK  223  A    between atoms: _547  and  _549
REMARK  224  A    between atoms: _549  and  _550
REMARK  225  A    between atoms: _549  and  _552
REMARK  226  A    between atoms: _552  and  _553
REMARK  227  A    between atoms: _553  and  _554
REMARK  228  A    between atoms: _554  and  _555
REMARK  229  A    between atoms: _564  and  _566
REMARK  230  A    between atoms: _566  and  _567
REMARK  231  A    between atoms: _566  and  _569
REMARK  232  A    between atoms: _569  and  _570
REMARK                            x       y       z     vdW  Elec       q    Type
REMARK                         _______ _______ _______ _____ _____    ______ ____
ROOT
ATOM      1  C   VAL A   5     -16.221 -15.980   4.664  0.00  0.00    +0.241 C 
ATOM      2  O   VAL A   5     -15.725 -15.600   5.762  0.00  0.00    -0.273 OA
ATOM      3  N   ILE A   6     -16.765 -17.165   4.438  0.00  0.00    -0.297 N 
ATOM      4  H   ILE A   6     -17.170 -17.348   3.498  0.00  0.00    +0.150 HD
ENDROOT
BRANCH   3   5
ATOM      5  CA  ILE A   6     -16.829 -18.233   5.437  0.00  0.00    +0.149 C 
BRANCH   5   6
ATOM      6  C   ILE A   6     -15.642 -19.110   5.202  0.00  0.00    +0.241 C 
ATOM      7  N   GLY A   7     -14.750 -19.148   6.187  0.00  0.00    -0.295 N 
ATOM      8  H   GLY A   7     -14.924 -18.622   7.067  0.00  0.00    +0.150 HD
ATOM      9  O   ILE A   6     -15.514 -19.765   4.141  0.00  0.00    -0.273 OA
BRANCH   7  10
ATOM     10  CA  GLY A   7     -13.504 -19.942   6.030  0.00  0.00    +0.176 C 
BRANCH  10  11
ATOM     11  C   GLY A   7     -13.631 -21.318   6.642  0.00  0.00    +0.243 C 
ATOM     12  O   GLY A   7     -14.682 -21.743   7.128  0.00  0.00    -0.273 OA
ATOM     13  N   ARG A   8     -12.509 -22.033   6.594  0.00  0.00    -0.297 N 
ATOM     14  H   ARG A   8     -11.651 -21.586   6.211  0.00  0.00    +0.150 HD
BRANCH  13  15
ATOM     15  CA  ARG A   8     -12.428 -23.418   7.055  0.00  0.00    +0.149 C 
BRANCH  15  16
ATOM     16  C   ARG A   8     -12.715 -23.485   8.539  0.00  0.00    +0.241 C 
ATOM     17  N   ASP A   9     -12.352 -22.457   9.331  0.00  0.00    -0.298 N 
ATOM     18  H   ASP A   9     -11.852 -21.642   8.923  0.00  0.00    +0.150 HD
ATOM     19  O   ARG A   8     -13.250 -24.529   8.976  0.00  0.00    -0.273 OA
BRANCH  17  20
ATOM     20  CA  ASP A   9     -12.657 -22.480  10.760  0.00  0.00    +0.148 C 
BRANCH  20  21
ATOM     21  C   ASP A   9     -14.171 -22.668  11.013  0.00  0.00    +0.227 C 
ATOM     22  O   ASP A   9     -14.551 -23.390  11.925  0.00  0.00    -0.286 OA
ENDBRANCH  20  21
BRANCH  20  23
ATOM     23  CB  ASP A   9     -12.137 -21.261  11.443  0.00  0.00    +0.142 C 
BRANCH  23  24
ATOM     24  CG  ASP A   9     -12.624 -19.960  10.867  0.00  0.00    +0.367 C 
ATOM     25  OD2 ASP A   9     -12.251 -18.892  11.465  0.00  0.00    -0.246 OA
ATOM     26  OD1 ASP A   9     -13.235 -19.859   9.772  0.00  0.00    -0.246 OA
ENDBRANCH  23  24
ENDBRANCH  20  23
ENDBRANCH  17  20
ENDBRANCH  15  16
BRANCH  15  27
ATOM     27  CB  ARG A   8     -11.075 -24.012   6.736  0.00  0.00    +0.033 C 
BRANCH  27  28
ATOM     28  CG  ARG A   8     -10.887 -24.242   5.204  0.00  0.00    +0.045 C 
BRANCH  28  29
ATOM     29  CD  ARG A   8      -9.678 -25.009   4.866  0.00  0.00    +0.174 C 
BRANCH  29  30
ATOM     30  NE  ARG A   8      -8.457 -24.371   5.406  0.00  0.00    -0.265 N 
ATOM     31  CZ  ARG A   8      -7.839 -24.638   6.571  0.00  0.00    +0.342 C 
ATOM     32  NH2 ARG A   8      -8.179 -25.720   7.329  0.00  0.00    -0.292 N 
ATOM     33 HH21 ARG A   8      -7.685 -25.903   8.226  0.00  0.00    +0.255 HD
ATOM     34 HH22 ARG A   8      -8.932 -26.362   7.010  0.00  0.00    +0.255 HD
ATOM     35  NH1 ARG A   8      -6.789 -23.888   6.921  0.00  0.00    -0.292 N 
ATOM     36 HH11 ARG A   8      -6.293 -24.073   7.816  0.00  0.00    +0.255 HD
ATOM     37 HH12 ARG A   8      -6.468 -23.120   6.298  0.00  0.00    +0.255 HD
ATOM     38  HE  ARG A   8      -8.026 -23.630   4.817  0.00  0.00    +0.259 HD
ENDBRANCH  29  30
ENDBRANCH  28  29
ENDBRANCH  27  28
ENDBRANCH  15  27
ENDBRANCH  13  15
ENDBRANCH  10  11
ENDBRANCH   7  10
ENDBRANCH   5   6
BRANCH   5  39
ATOM     39  CB  ILE A   6     -18.146 -19.054   5.317  0.00  0.00    +0.027 C 
ATOM     40  CG2 ILE A   6     -18.134 -20.172   6.343  0.00  0.00    +0.002 C 
BRANCH  39  41
ATOM     41  CG1 ILE A   6     -19.426 -18.195   5.344  0.00  0.00    +0.002 C 
ATOM     42  CD1 ILE A   6     -19.483 -17.239   6.544  0.00  0.00    +0.000 C 
ENDBRANCH  39  41
ENDBRANCH   5  39
ENDBRANCH   3   5
BRANCH   1  43
ATOM     43  CA  VAL A   5     -16.103 -15.156   3.421  0.00  0.00    +0.149 C 
BRANCH  43  45
ATOM     44  C   ASN A   4     -17.306 -13.104   2.881  0.00  0.00    +0.241 C 
ATOM     45  N   VAL A   5     -16.423 -13.742   3.661  0.00  0.00    -0.297 N 
ATOM     46  H   VAL A   5     -15.961 -13.233   4.442  0.00  0.00    +0.150 HD
ATOM     47  O   ASN A   4     -17.778 -13.651   1.841  0.00  0.00    -0.273 OA
BRANCH  44  48
ATOM     48  CA  ASN A   4     -17.684 -11.669   3.170  0.00  0.00    +0.158 C 
BRANCH  48  50
ATOM     49  C   VAL A   3     -16.616 -10.533   1.321  0.00  0.00    +0.241 C 
ATOM     50  N   ASN A   4     -17.747 -10.924   1.905  0.00  0.00    -0.297 N 
ATOM     51  H   ASN A   4     -18.666 -10.704   1.470  0.00  0.00    +0.150 HD
ATOM     52  O   VAL A   3     -15.471 -10.692   1.844  0.00  0.00    -0.273 OA
BRANCH  49  53
ATOM     53  CA  VAL A   3     -16.800  -9.869  -0.045  0.00  0.00    +0.149 C 
BRANCH  53  55
ATOM     54  C   PRO A   2     -15.782  -7.812  -0.729  0.00  0.00    +0.241 C 
ATOM     55  N   VAL A   3     -15.648  -9.026  -0.190  0.00  0.00    -0.297 N 
ATOM     56  H   VAL A   3     -14.714  -9.359   0.123  0.00  0.00    +0.150 HD
ATOM     57  O   PRO A   2     -16.792  -7.423  -1.278  0.00  0.00    -0.273 OA
BRANCH  54  64
ATOM     58  C   THR A   1     -14.004  -6.919   1.653  0.00  0.00    +0.244 C 
ATOM     59  O   THR A   1     -15.079  -6.474   1.943  0.00  0.00    -0.273 OA
ATOM     60  N   PRO A   2     -13.661  -7.184   0.387  0.00  0.00    -0.272 N 
ATOM     61  CD  PRO A   2     -12.343  -7.560  -0.104  0.00  0.00    +0.094 C 
ATOM     62  CG  PRO A   2     -12.407  -7.190  -1.554  0.00  0.00    +0.024 C 
ATOM     63  CB  PRO A   2     -13.741  -7.233  -1.970  0.00  0.00    +0.031 C 
ATOM     64  CA  PRO A   2     -14.584  -6.901  -0.685  0.00  0.00    +0.152 C 
BRANCH  58  65
ATOM     65  CA  THR A   1     -12.989  -7.247   2.757  0.00  0.00    +0.172 C 
BRANCH  65  66
ATOM     66  N   THR A   1     -13.072  -6.283   3.813  0.00  0.00    -0.236 NA
ATOM     67  H   THR A   1     -13.319  -6.623   4.764  0.00  0.00    +0.142 HD
ENDBRANCH  65  66
BRANCH  65  68
ATOM     68  CB  THR A   1     -13.283  -8.668   3.336  0.00  0.00    +0.135 C 
ATOM     69  CG2 THR A   1     -14.643  -8.772   4.090  0.00  0.00    +0.034 C 
BRANCH  68  70
ATOM     70  OG1 THR A   1     -13.213  -9.604   2.229  0.00  0.00    -0.383 OA
ATOM     71  HG1 THR A   1     -13.888  -9.358   1.547  0.00  0.00    +0.210 HD
ENDBRANCH  68  70
ENDBRANCH  65  68
ENDBRANCH  58  65
ENDBRANCH  54  64
ENDBRANCH  53  55
BRANCH  53  72
ATOM     72  CB  VAL A   3     -16.917 -10.934  -1.187  0.00  0.00    +0.027 C 
ATOM     73  CG2 VAL A   3     -15.853 -11.941  -1.091  0.00  0.00    +0.002 C 
ATOM     74  CG1 VAL A   3     -18.226 -11.577  -1.139  0.00  0.00    +0.002 C 
ENDBRANCH  53  72
ENDBRANCH  49  53
ENDBRANCH  48  50
BRANCH  48  75
ATOM     75  CB  ASN A   4     -19.011 -11.604   3.876  0.00  0.00    +0.114 C 
BRANCH  75  76
ATOM     76  CG  ASN A   4     -19.404 -10.167   4.149  0.00  0.00    +0.222 C 
ATOM     77  OD1 ASN A   4     -18.561  -9.335   4.541  0.00  0.00    -0.275 OA
ATOM     78  ND2 ASN A   4     -20.726  -9.863   4.038  0.00  0.00    -0.329 N 
ATOM     79 HD21 ASN A   4     -21.063  -8.910   4.284  0.00  0.00    +0.145 HD
ATOM     80 HD22 ASN A   4     -21.399 -10.583   3.707  0.00  0.00    +0.145 HD
ENDBRANCH  75  76
ENDBRANCH  48  75
ENDBRANCH  44  48
ENDBRANCH  43  45
BRANCH  43  81
ATOM     81  CB  VAL A   5     -14.667 -15.394   2.865  0.00  0.00    +0.027 C 
ATOM     82  CG2 VAL A   5     -13.668 -14.747   3.828  0.00  0.00    +0.002 C 
ATOM     83  CG1 VAL A   5     -14.509 -14.788   1.482  0.00  0.00    +0.002 C 
ENDBRANCH  43  81
ENDBRANCH   1  43
TORSDOF 31
REMARK  Name = ../refined-set-2016/4ye3/4ye3_pocket.pdb
REMARK  232 active torsions:
REMARK  status: ('A' for Active; 'I' for Inactive)
REMARK    1  A    between atoms: _1  and  _3
REMARK    2  A    between atoms: _3  and  _4
REMARK    3  A    between atoms: _3  and  _6
REMARK    4  A    between atoms: _6  and  _7
REMARK    5  A    between atoms: _7  and  _8
REMARK    6  A    between atoms: _8  and  _9
REMARK    7  A    between atoms: _18  and  _20
REMARK    8  A    between atoms: _20  and  _21
REMARK    9  A    between atoms: _20  and  _23
REMARK   10  A    between atoms: _23  and  _24
REMARK   11  A    between atoms: _30  and  _32
REMARK   12  A    between atoms: _32  and  _33
REMARK   13  A    between atoms: _32  and  _35
REMARK   14  A    between atoms: _35  and  _36
REMARK   15  A    between atoms: _39  and  _41
REMARK   16  A    between atoms: _41  and  _42
REMARK   17  A    between atoms: _41  and  _44
REMARK   18  A    between atoms: _44  and  _45
REMARK   19  A    between atoms: _48  and  _50
REMARK   20  A    between atoms: _50  and  _51
REMARK   21  A    between atoms: _50  and  _53
REMARK   22  A    between atoms: _53  and  _54
REMARK   23  A    between atoms: _57  and  _59
REMARK   24  A    between atoms: _59  and  _60
REMARK   25  A    between atoms: _59  and  _62
REMARK   26  A    between atoms: _62  and  _63
REMARK   27  A    between atoms: _66  and  _68
REMARK   28  A    between atoms: _68  and  _69
REMARK   29  A    between atoms: _71  and  _73
REMARK   30  A    between atoms: _73  and  _74
REMARK   31  A    between atoms: _77  and  _79
REMARK   32  A    between atoms: _79  and  _80
REMARK   33  A    between atoms: _79  and  _82
REMARK   34  A    between atoms: _82  and  _83
REMARK   35  A    between atoms: _86  and  _88
REMARK   36  A    between atoms: _88  and  _89
REMARK   37  A    between atoms: _88  and  _91
REMARK   38  A    between atoms: _91  and  _92
REMARK   39  A    between atoms: _97  and  _99
REMARK   40  A    between atoms: _99  and  _100
REMARK   41  A    between atoms: _99  and  _102
REMARK   42  A    between atoms: _102  and  _103
REMARK   43  A    between atoms: _106  and  _108
REMARK   44  A    between atoms: _108  and  _109
REMARK   45  A    between atoms: _108  and  _111
REMARK   46  A    between atoms: _111  and  _112
REMARK   47  A    between atoms: _115  and  _117
REMARK   48  A    between atoms: _117  and  _118
REMARK   49  A    between atoms: _117  and  _120
REMARK   50  A    between atoms: _120  and  _121
REMARK   51  A    between atoms: _121  and  _122
REMARK   52  A    between atoms: _122  and  _123
REMARK   53  A    between atoms: _123  and  _124
REMARK   54  A    between atoms: _128  and  _130
REMARK   55  A    between atoms: _130  and  _131
REMARK   56  A    between atoms: _130  and  _133
REMARK   57  A    between atoms: _133  and  _134
REMARK   58  A    between atoms: _134  and  _135
REMARK   59  A    between atoms: _137  and  _139
REMARK   60  A    between atoms: _139  and  _140
REMARK   61  A    between atoms: _139  and  _142
REMARK   62  A    between atoms: _145  and  _147
REMARK   63  A    between atoms: _147  and  _148
REMARK   64  A    between atoms: _150  and  _152
REMARK   65  A    between atoms: _152  and  _153
REMARK   66  A    between atoms: _155  and  _157
REMARK   67  A    between atoms: _157  and  _158
REMARK   68  A    between atoms: _157  and  _160
REMARK   69  A    between atoms: _160  and  _161
REMARK   70  A    between atoms: _164  and  _166
REMARK   71  A    between atoms: _166  and  _167
REMARK   72  A    between atoms: _169  and  _171
REMARK   73  A    between atoms: _171  and  _172
REMARK   74  A    between atoms: _174  and  _176
REMARK   75  A    between atoms: _176  and  _177
REMARK   76  A    between atoms: _176  and  _179
REMARK   77  A    between atoms: _179  and  _180
REMARK   78  A    between atoms: _186  and  _188
REMARK   79  A    between atoms: _188  and  _189
REMARK   80  A    between atoms: _188  and  _191
REMARK   81  A    between atoms: _191  and  _192
REMARK   82  A    between atoms: _195  and  _197
REMARK   83  A    between atoms: _197  and  _198
REMARK   84  A    between atoms: _197  and  _200
REMARK   85  A    between atoms: _200  and  _201
REMARK   86  A    between atoms: _204  and  _206
REMARK   87  A    between atoms: _206  and  _207
REMARK   88  A    between atoms: _206  and  _209
REMARK   89  A    between atoms: _209  and  _210
REMARK   90  A    between atoms: _214  and  _215
REMARK   91  A    between atoms: _220  and  _222
REMARK   92  A    between atoms: _222  and  _223
REMARK   93  A    between atoms: _222  and  _225
REMARK   94  A    between atoms: _228  and  _230
REMARK   95  A    between atoms: _230  and  _231
REMARK   96  A    between atoms: _230  and  _233
REMARK   97  A    between atoms: _233  and  _234
REMARK   98  A    between atoms: _239  and  _241
REMARK   99  A    between atoms: _241  and  _242
REMARK  100  A    between atoms: _241  and  _244
REMARK  101  A    between atoms: _247  and  _249
REMARK  102  A    between atoms: _249  and  _250
REMARK  103  A    between atoms: _249  and  _252
REMARK  104  A    between atoms: _252  and  _253
REMARK  105  A    between atoms: _256  and  _258
REMARK  106  A    between atoms: _258  and  _259
REMARK  107  A    between atoms: _261  and  _263
REMARK  108  A    between atoms: _263  and  _264
REMARK  109  A    between atoms: _263  and  _266
REMARK  110  A    between atoms: _266  and  _267
REMARK  111  A    between atoms: _267  and  _268
REMARK  112  A    between atoms: _268  and  _269
REMARK  113  A    between atoms: _278  and  _280
REMARK  114  A    between atoms: _280  and  _281
REMARK  115  A    between atoms: _280  and  _283
REMARK  116  A    between atoms: _283  and  _284
REMARK  117  A    between atoms: _287  and  _289
REMARK  118  A    between atoms: _289  and  _290
REMARK  119  A    between atoms: _289  and  _292
REMARK  120  A    between atoms: _292  and  _293
REMARK  121  A    between atoms: _293  and  _294
REMARK  122  A    between atoms: _294  and  _295
REMARK  123  A    between atoms: _304  and  _306
REMARK  124  A    between atoms: _306  and  _307
REMARK  125  A    between atoms: _306  and  _309
REMARK  126  A    between atoms: _309  and  _310
REMARK  127  A    between atoms: _316  and  _318
REMARK  128  A    between atoms: _318  and  _319
REMARK  129  A    between atoms: _318  and  _321
REMARK  130  A    between atoms: _321  and  _322
REMARK  131  A    between atoms: _325  and  _327
REMARK  132  A    between atoms: _327  and  _328
REMARK  133  A    between atoms: _327  and  _330
REMARK  134  A    between atoms: _330  and  _331
REMARK  135  A    between atoms: _334  and  _336
REMARK  136  A    between atoms: _336  and  _337
REMARK  137  A    between atoms: _336  and  _339
REMARK  138  A    between atoms: _339  and  _340
REMARK  139  A    between atoms: _343  and  _345
REMARK  140  A    between atoms: _345  and  _346
REMARK  141  A    between atoms: _345  and  _348
REMARK  142  A    between atoms: _348  and  _349
REMARK  143  A    between atoms: _352  and  _354
REMARK  144  A    between atoms: _354  and  _355
REMARK  145  A    between atoms: _357  and  _359
REMARK  146  A    between atoms: _359  and  _360
REMARK  147  A    between atoms: _363  and  _365
REMARK  148  A    between atoms: _365  and  _366
REMARK  149  A    between atoms: _365  and  _368
REMARK  150  A    between atoms: _368  and  _369
REMARK  151  A    between atoms: _372  and  _374
REMARK  152  A    between atoms: _374  and  _375
REMARK  153  A    between atoms: _374  and  _377
REMARK  154  A    between atoms: _377  and  _378
REMARK  155  A    between atoms: _383  and  _385
REMARK  156  A    between atoms: _385  and  _386
REMARK  157  A    between atoms: _385  and  _388
REMARK  158  A    between atoms: _388  and  _389
REMARK  159  A    between atoms: _392  and  _394
REMARK  160  A    between atoms: _394  and  _395
REMARK  161  A    between atoms: _394  and  _397
REMARK  162  A    between atoms: _397  and  _398
REMARK  163  A    between atoms: _401  and  _403
REMARK  164  A    between atoms: _403  and  _404
REMARK  165  A    between atoms: _403  and  _406
REMARK  166  A    between atoms: _406  and  _407
REMARK  167  A    between atoms: _407  and  _408
REMARK  168  A    between atoms: _408  and  _409
REMARK  169  A    between atoms: _409  and  _410
REMARK  170  A    between atoms: _414  and  _416
REMARK  171  A    between atoms: _416  and  _417
REMARK  172  A    between atoms: _416  and  _419
REMARK  173  A    between atoms: _419  and  _420
REMARK  174  A    between atoms: _420  and  _421
REMARK  175  A    between atoms: _423  and  _425
REMARK  176  A    between atoms: _425  and  _426
REMARK  177  A    between atoms: _425  and  _428
REMARK  178  A    between atoms: _431  and  _433
REMARK  179  A    between atoms: _433  and  _434
REMARK  180  A    between atoms: _436  and  _438
REMARK  181  A    between atoms: _438  and  _439
REMARK  182  A    between atoms: _441  and  _443
REMARK  183  A    between atoms: _443  and  _444
REMARK  184  A    between atoms: _443  and  _446
REMARK  185  A    between atoms: _446  and  _447
REMARK  186  A    between atoms: _450  and  _452
REMARK  187  A    between atoms: _452  and  _453
REMARK  188  A    between atoms: _455  and  _457
REMARK  189  A    between atoms: _457  and  _458
REMARK  190  A    between atoms: _460  and  _462
REMARK  191  A    between atoms: _462  and  _463
REMARK  192  A    between atoms: _462  and  _465
REMARK  193  A    between atoms: _465  and  _466
REMARK  194  A    between atoms: _472  and  _474
REMARK  195  A    between atoms: _474  and  _475
REMARK  196  A    between atoms: _474  and  _477
REMARK  197  A    between atoms: _477  and  _478
REMARK  198  A    between atoms: _481  and  _483
REMARK  199  A    between atoms: _483  and  _484
REMARK  200  A    between atoms: _483  and  _486
REMARK  201  A    between atoms: _486  and  _487
REMARK  202  A    between atoms: _490  and  _492
REMARK  203  A    between atoms: _492  and  _493
REMARK  204  A    between atoms: _492  and  _495
REMARK  205  A    between atoms: _495  and  _496
REMARK  206  A    between atoms: _500  and  _501
REMARK  207  A    between atoms: _506  and  _508
REMARK  208  A    between atoms: _508  and  _509
REMARK  209  A    between atoms: _508  and  _511
REMARK  210  A    between atoms: _514  and  _516
REMARK  211  A    between atoms: _516  and  _517
REMARK  212  A    between atoms: _516  and  _519
REMARK  213  A    between atoms: _519  and  _520
REMARK  214  A    between atoms: _525  and  _527
REMARK  215  A    between atoms: _527  and  _528
REMARK  216  A    between atoms: _527  and  _530
REMARK  217  A    between atoms: _533  and  _535
REMARK  218  A    between atoms: _535  and  _536
REMARK  219  A    between atoms: _535  and  _538
REMARK  220  A    between atoms: _538  and  _539
REMARK  221  A    between atoms: _542  and  _544
REMARK  222  A    between atoms: _544  and  _545
REMARK  223  A    between atoms: _547  and  _549
REMARK  224  A    between atoms: _549  and  _550
REMARK  225  A    between atoms: _549  and  _552
REMARK  226  A    between atoms: _552  and  _553
REMARK  227  A    between atoms: _553  and  _554
REMARK  228  A    between atoms: _554  and  _555
REMARK  229  A    between atoms: _564  and  _566
REMARK  230  A    between atoms: _566  and  _567
REMARK  231  A    between atoms: _566  and  _569
REMARK  232  A    between atoms: _569  and  _570
REMARK                            x       y       z     vdW  Elec       q    Type
REMARK                         _______ _______ _______ _____ _____    ______ ____
ROOT
ATOM      1  O   HOH     1      -9.570  -5.815  -3.584  0.00  0.00    +0.000 OA
ENDROOT
TORSDOF 0
REMARK  Name = ../refined-set-2016/4ye3/4ye3_pocket.pdb
REMARK  232 active torsions:
REMARK  status: ('A' for Active; 'I' for Inactive)
REMARK    1  A    between atoms: _1  and  _3
REMARK    2  A    between atoms: _3  and  _4
REMARK    3  A    between atoms: _3  and  _6
REMARK    4  A    between atoms: _6  and  _7
REMARK    5  A    between atoms: _7  and  _8
REMARK    6  A    between atoms: _8  and  _9
REMARK    7  A    between atoms: _18  and  _20
REMARK    8  A    between atoms: _20  and  _21
REMARK    9  A    between atoms: _20  and  _23
REMARK   10  A    between atoms: _23  and  _24
REMARK   11  A    between atoms: _30  and  _32
REMARK   12  A    between atoms: _32  and  _33
REMARK   13  A    between atoms: _32  and  _35
REMARK   14  A    between atoms: _35  and  _36
REMARK   15  A    between atoms: _39  and  _41
REMARK   16  A    between atoms: _41  and  _42
REMARK   17  A    between atoms: _41  and  _44
REMARK   18  A    between atoms: _44  and  _45
REMARK   19  A    between atoms: _48  and  _50
REMARK   20  A    between atoms: _50  and  _51
REMARK   21  A    between atoms: _50  and  _53
REMARK   22  A    between atoms: _53  and  _54
REMARK   23  A    between atoms: _57  and  _59
REMARK   24  A    between atoms: _59  and  _60
REMARK   25  A    between atoms: _59  and  _62
REMARK   26  A    between atoms: _62  and  _63
REMARK   27  A    between atoms: _66  and  _68
REMARK   28  A    between atoms: _68  and  _69
REMARK   29  A    between atoms: _71  and  _73
REMARK   30  A    between atoms: _73  and  _74
REMARK   31  A    between atoms: _77  and  _79
REMARK   32  A    between atoms: _79  and  _80
REMARK   33  A    between atoms: _79  and  _82
REMARK   34  A    between atoms: _82  and  _83
REMARK   35  A    between atoms: _86  and  _88
REMARK   36  A    between atoms: _88  and  _89
REMARK   37  A    between atoms: _88  and  _91
REMARK   38  A    between atoms: _91  and  _92
REMARK   39  A    between atoms: _97  and  _99
REMARK   40  A    between atoms: _99  and  _100
REMARK   41  A    between atoms: _99  and  _102
REMARK   42  A    between atoms: _102  and  _103
REMARK   43  A    between atoms: _106  and  _108
REMARK   44  A    between atoms: _108  and  _109
REMARK   45  A    between atoms: _108  and  _111
REMARK   46  A    between atoms: _111  and  _112
REMARK   47  A    between atoms: _115  and  _117
REMARK   48  A    between atoms: _117  and  _118
REMARK   49  A    between atoms: _117  and  _120
REMARK   50  A    between atoms: _120  and  _121
REMARK   51  A    between atoms: _121  and  _122
REMARK   52  A    between atoms: _122  and  _123
REMARK   53  A    between atoms: _123  and  _124
REMARK   54  A    between atoms: _128  and  _130
REMARK   55  A    between atoms: _130  and  _131
REMARK   56  A    between atoms: _130  and  _133
REMARK   57  A    between atoms: _133  and  _134
REMARK   58  A    between atoms: _134  and  _135
REMARK   59  A    between atoms: _137  and  _139
REMARK   60  A    between atoms: _139  and  _140
REMARK   61  A    between atoms: _139  and  _142
REMARK   62  A    between atoms: _145  and  _147
REMARK   63  A    between atoms: _147  and  _148
REMARK   64  A    between atoms: _150  and  _152
REMARK   65  A    between atoms: _152  and  _153
REMARK   66  A    between atoms: _155  and  _157
REMARK   67  A    between atoms: _157  and  _158
REMARK   68  A    between atoms: _157  and  _160
REMARK   69  A    between atoms: _160  and  _161
REMARK   70  A    between atoms: _164  and  _166
REMARK   71  A    between atoms: _166  and  _167
REMARK   72  A    between atoms: _169  and  _171
REMARK   73  A    between atoms: _171  and  _172
REMARK   74  A    between atoms: _174  and  _176
REMARK   75  A    between atoms: _176  and  _177
REMARK   76  A    between atoms: _176  and  _179
REMARK   77  A    between atoms: _179  and  _180
REMARK   78  A    between atoms: _186  and  _188
REMARK   79  A    between atoms: _188  and  _189
REMARK   80  A    between atoms: _188  and  _191
REMARK   81  A    between atoms: _191  and  _192
REMARK   82  A    between atoms: _195  and  _197
REMARK   83  A    between atoms: _197  and  _198
REMARK   84  A    between atoms: _197  and  _200
REMARK   85  A    between atoms: _200  and  _201
REMARK   86  A    between atoms: _204  and  _206
REMARK   87  A    between atoms: _206  and  _207
REMARK   88  A    between atoms: _206  and  _209
REMARK   89  A    between atoms: _209  and  _210
REMARK   90  A    between atoms: _214  and  _215
REMARK   91  A    between atoms: _220  and  _222
REMARK   92  A    between atoms: _222  and  _223
REMARK   93  A    between atoms: _222  and  _225
REMARK   94  A    between atoms: _228  and  _230
REMARK   95  A    between atoms: _230  and  _231
REMARK   96  A    between atoms: _230  and  _233
REMARK   97  A    between atoms: _233  and  _234
REMARK   98  A    between atoms: _239  and  _241
REMARK   99  A    between atoms: _241  and  _242
REMARK  100  A    between atoms: _241  and  _244
REMARK  101  A    between atoms: _247  and  _249
REMARK  102  A    between atoms: _249  and  _250
REMARK  103  A    between atoms: _249  and  _252
REMARK  104  A    between atoms: _252  and  _253
REMARK  105  A    between atoms: _256  and  _258
REMARK  106  A    between atoms: _258  and  _259
REMARK  107  A    between atoms: _261  and  _263
REMARK  108  A    between atoms: _263  and  _264
REMARK  109  A    between atoms: _263  and  _266
REMARK  110  A    between atoms: _266  and  _267
REMARK  111  A    between atoms: _267  and  _268
REMARK  112  A    between atoms: _268  and  _269
REMARK  113  A    between atoms: _278  and  _280
REMARK  114  A    between atoms: _280  and  _281
REMARK  115  A    between atoms: _280  and  _283
REMARK  116  A    between atoms: _283  and  _284
REMARK  117  A    between atoms: _287  and  _289
REMARK  118  A    between atoms: _289  and  _290
REMARK  119  A    between atoms: _289  and  _292
REMARK  120  A    between atoms: _292  and  _293
REMARK  121  A    between atoms: _293  and  _294
REMARK  122  A    between atoms: _294  and  _295
REMARK  123  A    between atoms: _304  and  _306
REMARK  124  A    between atoms: _306  and  _307
REMARK  125  A    between atoms: _306  and  _309
REMARK  126  A    between atoms: _309  and  _310
REMARK  127  A    between atoms: _316  and  _318
REMARK  128  A    between atoms: _318  and  _319
REMARK  129  A    between atoms: _318  and  _321
REMARK  130  A    between atoms: _321  and  _322
REMARK  131  A    between atoms: _325  and  _327
REMARK  132  A    between atoms: _327  and  _328
REMARK  133  A    between atoms: _327  and  _330
REMARK  134  A    between atoms: _330  and  _331
REMARK  135  A    between atoms: _334  and  _336
REMARK  136  A    between atoms: _336  and  _337
REMARK  137  A    between atoms: _336  and  _339
REMARK  138  A    between atoms: _339  and  _340
REMARK  139  A    between atoms: _343  and  _345
REMARK  140  A    between atoms: _345  and  _346
REMARK  141  A    between atoms: _345  and  _348
REMARK  142  A    between atoms: _348  and  _349
REMARK  143  A    between atoms: _352  and  _354
REMARK  144  A    between atoms: _354  and  _355
REMARK  145  A    between atoms: _357  and  _359
REMARK  146  A    between atoms: _359  and  _360
REMARK  147  A    between atoms: _363  and  _365
REMARK  148  A    between atoms: _365  and  _366
REMARK  149  A    between atoms: _365  and  _368
REMARK  150  A    between atoms: _368  and  _369
REMARK  151  A    between atoms: _372  and  _374
REMARK  152  A    between atoms: _374  and  _375
REMARK  153  A    between atoms: _374  and  _377
REMARK  154  A    between atoms: _377  and  _378
REMARK  155  A    between atoms: _383  and  _385
REMARK  156  A    between atoms: _385  and  _386
REMARK  157  A    between atoms: _385  and  _388
REMARK  158  A    between atoms: _388  and  _389
REMARK  159  A    between atoms: _392  and  _394
REMARK  160  A    between atoms: _394  and  _395
REMARK  161  A    between atoms: _394  and  _397
REMARK  162  A    between atoms: _397  and  _398
REMARK  163  A    between atoms: _401  and  _403
REMARK  164  A    between atoms: _403  and  _404
REMARK  165  A    between atoms: _403  and  _406
REMARK  166  A    between atoms: _406  and  _407
REMARK  167  A    between atoms: _407  and  _408
REMARK  168  A    between atoms: _408  and  _409
REMARK  169  A    between atoms: _409  and  _410
REMARK  170  A    between atoms: _414  and  _416
REMARK  171  A    between atoms: _416  and  _417
REMARK  172  A    between atoms: _416  and  _419
REMARK  173  A    between atoms: _419  and  _420
REMARK  174  A    between atoms: _420  and  _421
REMARK  175  A    between atoms: _423  and  _425
REMARK  176  A    between atoms: _425  and  _426
REMARK  177  A    between atoms: _425  and  _428
REMARK  178  A    between atoms: _431  and  _433
REMARK  179  A    between atoms: _433  and  _434
REMARK  180  A    between atoms: _436  and  _438
REMARK  181  A    between atoms: _438  and  _439
REMARK  182  A    between atoms: _441  and  _443
REMARK  183  A    between atoms: _443  and  _444
REMARK  184  A    between atoms: _443  and  _446
REMARK  185  A    between atoms: _446  and  _447
REMARK  186  A    between atoms: _450  and  _452
REMARK  187  A    between atoms: _452  and  _453
REMARK  188  A    between atoms: _455  and  _457
REMARK  189  A    between atoms: _457  and  _458
REMARK  190  A    between atoms: _460  and  _462
REMARK  191  A    between atoms: _462  and  _463
REMARK  192  A    between atoms: _462  and  _465
REMARK  193  A    between atoms: _465  and  _466
REMARK  194  A    between atoms: _472  and  _474
REMARK  195  A    between atoms: _474  and  _475
REMARK  196  A    between atoms: _474  and  _477
REMARK  197  A    between atoms: _477  and  _478
REMARK  198  A    between atoms: _481  and  _483
REMARK  199  A    between atoms: _483  and  _484
REMARK  200  A    between atoms: _483  and  _486
REMARK  201  A    between atoms: _486  and  _487
REMARK  202  A    between atoms: _490  and  _492
REMARK  203  A    between atoms: _492  and  _493
REMARK  204  A    between atoms: _492  and  _495
REMARK  205  A    between atoms: _495  and  _496
REMARK  206  A    between atoms: _500  and  _501
REMARK  207  A    between atoms: _506  and  _508
REMARK  208  A    between atoms: _508  and  _509
REMARK  209  A    between atoms: _508  and  _511
REMARK  210  A    between atoms: _514  and  _516
REMARK  211  A    between atoms: _516  and  _517
REMARK  212  A    between atoms: _516  and  _519
REMARK  213  A    between atoms: _519  and  _520
REMARK  214  A    between atoms: _525  and  _527
REMARK  215  A    between atoms: _527  and  _528
REMARK  216  A    between atoms: _527  and  _530
REMARK  217  A    between atoms: _533  and  _535
REMARK  218  A    between atoms: _535  and  _536
REMARK  219  A    between atoms: _535  and  _538
REMARK  220  A    between atoms: _538  and  _539
REMARK  221  A    between atoms: _542  and  _544
REMARK  222  A    between atoms: _544  and  _545
REMARK  223  A    between atoms: _547  and  _549
REMARK  224  A    between atoms: _549  and  _550
REMARK  225  A    between atoms: _549  and  _552
REMARK  226  A    between atoms: _552  and  _553
REMARK  227  A    between atoms: _553  and  _554
REMARK  228  A    between atoms: _554  and  _555
REMARK  229  A    between atoms: _564  and  _566
REMARK  230  A    between atoms: _566  and  _567
REMARK  231  A    between atoms: _566  and  _569
REMARK  232  A    between atoms: _569  and  _570
REMARK                            x       y       z     vdW  Elec       q    Type
REMARK                         _______ _______ _______ _____ _____    ______ ____
ROOT
ATOM      1  O   HOH     1     -13.592 -12.750 -11.799  0.00  0.00    +0.000 OA
ENDROOT
TORSDOF 0
REMARK  Name = ../refined-set-2016/4ye3/4ye3_pocket.pdb
REMARK  232 active torsions:
REMARK  status: ('A' for Active; 'I' for Inactive)
REMARK    1  A    between atoms: _1  and  _3
REMARK    2  A    between atoms: _3  and  _4
REMARK    3  A    between atoms: _3  and  _6
REMARK    4  A    between atoms: _6  and  _7
REMARK    5  A    between atoms: _7  and  _8
REMARK    6  A    between atoms: _8  and  _9
REMARK    7  A    between atoms: _18  and  _20
REMARK    8  A    between atoms: _20  and  _21
REMARK    9  A    between atoms: _20  and  _23
REMARK   10  A    between atoms: _23  and  _24
REMARK   11  A    between atoms: _30  and  _32
REMARK   12  A    between atoms: _32  and  _33
REMARK   13  A    between atoms: _32  and  _35
REMARK   14  A    between atoms: _35  and  _36
REMARK   15  A    between atoms: _39  and  _41
REMARK   16  A    between atoms: _41  and  _42
REMARK   17  A    between atoms: _41  and  _44
REMARK   18  A    between atoms: _44  and  _45
REMARK   19  A    between atoms: _48  and  _50
REMARK   20  A    between atoms: _50  and  _51
REMARK   21  A    between atoms: _50  and  _53
REMARK   22  A    between atoms: _53  and  _54
REMARK   23  A    between atoms: _57  and  _59
REMARK   24  A    between atoms: _59  and  _60
REMARK   25  A    between atoms: _59  and  _62
REMARK   26  A    between atoms: _62  and  _63
REMARK   27  A    between atoms: _66  and  _68
REMARK   28  A    between atoms: _68  and  _69
REMARK   29  A    between atoms: _71  and  _73
REMARK   30  A    between atoms: _73  and  _74
REMARK   31  A    between atoms: _77  and  _79
REMARK   32  A    between atoms: _79  and  _80
REMARK   33  A    between atoms: _79  and  _82
REMARK   34  A    between atoms: _82  and  _83
REMARK   35  A    between atoms: _86  and  _88
REMARK   36  A    between atoms: _88  and  _89
REMARK   37  A    between atoms: _88  and  _91
REMARK   38  A    between atoms: _91  and  _92
REMARK   39  A    between atoms: _97  and  _99
REMARK   40  A    between atoms: _99  and  _100
REMARK   41  A    between atoms: _99  and  _102
REMARK   42  A    between atoms: _102  and  _103
REMARK   43  A    between atoms: _106  and  _108
REMARK   44  A    between atoms: _108  and  _109
REMARK   45  A    between atoms: _108  and  _111
REMARK   46  A    between atoms: _111  and  _112
REMARK   47  A    between atoms: _115  and  _117
REMARK   48  A    between atoms: _117  and  _118
REMARK   49  A    between atoms: _117  and  _120
REMARK   50  A    between atoms: _120  and  _121
REMARK   51  A    between atoms: _121  and  _122
REMARK   52  A    between atoms: _122  and  _123
REMARK   53  A    between atoms: _123  and  _124
REMARK   54  A    between atoms: _128  and  _130
REMARK   55  A    between atoms: _130  and  _131
REMARK   56  A    between atoms: _130  and  _133
REMARK   57  A    between atoms: _133  and  _134
REMARK   58  A    between atoms: _134  and  _135
REMARK   59  A    between atoms: _137  and  _139
REMARK   60  A    between atoms: _139  and  _140
REMARK   61  A    between atoms: _139  and  _142
REMARK   62  A    between atoms: _145  and  _147
REMARK   63  A    between atoms: _147  and  _148
REMARK   64  A    between atoms: _150  and  _152
REMARK   65  A    between atoms: _152  and  _153
REMARK   66  A    between atoms: _155  and  _157
REMARK   67  A    between atoms: _157  and  _158
REMARK   68  A    between atoms: _157  and  _160
REMARK   69  A    between atoms: _160  and  _161
REMARK   70  A    between atoms: _164  and  _166
REMARK   71  A    between atoms: _166  and  _167
REMARK   72  A    between atoms: _169  and  _171
REMARK   73  A    between atoms: _171  and  _172
REMARK   74  A    between atoms: _174  and  _176
REMARK   75  A    between atoms: _176  and  _177
REMARK   76  A    between atoms: _176  and  _179
REMARK   77  A    between atoms: _179  and  _180
REMARK   78  A    between atoms: _186  and  _188
REMARK   79  A    between atoms: _188  and  _189
REMARK   80  A    between atoms: _188  and  _191
REMARK   81  A    between atoms: _191  and  _192
REMARK   82  A    between atoms: _195  and  _197
REMARK   83  A    between atoms: _197  and  _198
REMARK   84  A    between atoms: _197  and  _200
REMARK   85  A    between atoms: _200  and  _201
REMARK   86  A    between atoms: _204  and  _206
REMARK   87  A    between atoms: _206  and  _207
REMARK   88  A    between atoms: _206  and  _209
REMARK   89  A    between atoms: _209  and  _210
REMARK   90  A    between atoms: _214  and  _215
REMARK   91  A    between atoms: _220  and  _222
REMARK   92  A    between atoms: _222  and  _223
REMARK   93  A    between atoms: _222  and  _225
REMARK   94  A    between atoms: _228  and  _230
REMARK   95  A    between atoms: _230  and  _231
REMARK   96  A    between atoms: _230  and  _233
REMARK   97  A    between atoms: _233  and  _234
REMARK   98  A    between atoms: _239  and  _241
REMARK   99  A    between atoms: _241  and  _242
REMARK  100  A    between atoms: _241  and  _244
REMARK  101  A    between atoms: _247  and  _249
REMARK  102  A    between atoms: _249  and  _250
REMARK  103  A    between atoms: _249  and  _252
REMARK  104  A    between atoms: _252  and  _253
REMARK  105  A    between atoms: _256  and  _258
REMARK  106  A    between atoms: _258  and  _259
REMARK  107  A    between atoms: _261  and  _263
REMARK  108  A    between atoms: _263  and  _264
REMARK  109  A    between atoms: _263  and  _266
REMARK  110  A    between atoms: _266  and  _267
REMARK  111  A    between atoms: _267  and  _268
REMARK  112  A    between atoms: _268  and  _269
REMARK  113  A    between atoms: _278  and  _280
REMARK  114  A    between atoms: _280  and  _281
REMARK  115  A    between atoms: _280  and  _283
REMARK  116  A    between atoms: _283  and  _284
REMARK  117  A    between atoms: _287  and  _289
REMARK  118  A    between atoms: _289  and  _290
REMARK  119  A    between atoms: _289  and  _292
REMARK  120  A    between atoms: _292  and  _293
REMARK  121  A    between atoms: _293  and  _294
REMARK  122  A    between atoms: _294  and  _295
REMARK  123  A    between atoms: _304  and  _306
REMARK  124  A    between atoms: _306  and  _307
REMARK  125  A    between atoms: _306  and  _309
REMARK  126  A    between atoms: _309  and  _310
REMARK  127  A    between atoms: _316  and  _318
REMARK  128  A    between atoms: _318  and  _319
REMARK  129  A    between atoms: _318  and  _321
REMARK  130  A    between atoms: _321  and  _322
REMARK  131  A    between atoms: _325  and  _327
REMARK  132  A    between atoms: _327  and  _328
REMARK  133  A    between atoms: _327  and  _330
REMARK  134  A    between atoms: _330  and  _331
REMARK  135  A    between atoms: _334  and  _336
REMARK  136  A    between atoms: _336  and  _337
REMARK  137  A    between atoms: _336  and  _339
REMARK  138  A    between atoms: _339  and  _340
REMARK  139  A    between atoms: _343  and  _345
REMARK  140  A    between atoms: _345  and  _346
REMARK  141  A    between atoms: _345  and  _348
REMARK  142  A    between atoms: _348  and  _349
REMARK  143  A    between atoms: _352  and  _354
REMARK  144  A    between atoms: _354  and  _355
REMARK  145  A    between atoms: _357  and  _359
REMARK  146  A    between atoms: _359  and  _360
REMARK  147  A    between atoms: _363  and  _365
REMARK  148  A    between atoms: _365  and  _366
REMARK  149  A    between atoms: _365  and  _368
REMARK  150  A    between atoms: _368  and  _369
REMARK  151  A    between atoms: _372  and  _374
REMARK  152  A    between atoms: _374  and  _375
REMARK  153  A    between atoms: _374  and  _377
REMARK  154  A    between atoms: _377  and  _378
REMARK  155  A    between atoms: _383  and  _385
REMARK  156  A    between atoms: _385  and  _386
REMARK  157  A    between atoms: _385  and  _388
REMARK  158  A    between atoms: _388  and  _389
REMARK  159  A    between atoms: _392  and  _394
REMARK  160  A    between atoms: _394  and  _395
REMARK  161  A    between atoms: _394  and  _397
REMARK  162  A    between atoms: _397  and  _398
REMARK  163  A    between atoms: _401  and  _403
REMARK  164  A    between atoms: _403  and  _404
REMARK  165  A    between atoms: _403  and  _406
REMARK  166  A    between atoms: _406  and  _407
REMARK  167  A    between atoms: _407  and  _408
REMARK  168  A    between atoms: _408  and  _409
REMARK  169  A    between atoms: _409  and  _410
REMARK  170  A    between atoms: _414  and  _416
REMARK  171  A    between atoms: _416  and  _417
REMARK  172  A    between atoms: _416  and  _419
REMARK  173  A    between atoms: _419  and  _420
REMARK  174  A    between atoms: _420  and  _421
REMARK  175  A    between atoms: _423  and  _425
REMARK  176  A    between atoms: _425  and  _426
REMARK  177  A    between atoms: _425  and  _428
REMARK  178  A    between atoms: _431  and  _433
REMARK  179  A    between atoms: _433  and  _434
REMARK  180  A    between atoms: _436  and  _438
REMARK  181  A    between atoms: _438  and  _439
REMARK  182  A    between atoms: _441  and  _443
REMARK  183  A    between atoms: _443  and  _444
REMARK  184  A    between atoms: _443  and  _446
REMARK  185  A    between atoms: _446  and  _447
REMARK  186  A    between atoms: _450  and  _452
REMARK  187  A    between atoms: _452  and  _453
REMARK  188  A    between atoms: _455  and  _457
REMARK  189  A    between atoms: _457  and  _458
REMARK  190  A    between atoms: _460  and  _462
REMARK  191  A    between atoms: _462  and  _463
REMARK  192  A    between atoms: _462  and  _465
REMARK  193  A    between atoms: _465  and  _466
REMARK  194  A    between atoms: _472  and  _474
REMARK  195  A    between atoms: _474  and  _475
REMARK  196  A    between atoms: _474  and  _477
REMARK  197  A    between atoms: _477  and  _478
REMARK  198  A    between atoms: _481  and  _483
REMARK  199  A    between atoms: _483  and  _484
REMARK  200  A    between atoms: _483  and  _486
REMARK  201  A    between atoms: _486  and  _487
REMARK  202  A    between atoms: _490  and  _492
REMARK  203  A    between atoms: _492  and  _493
REMARK  204  A    between atoms: _492  and  _495
REMARK  205  A    between atoms: _495  and  _496
REMARK  206  A    between atoms: _500  and  _501
REMARK  207  A    between atoms: _506  and  _508
REMARK  208  A    between atoms: _508  and  _509
REMARK  209  A    between atoms: _508  and  _511
REMARK  210  A    between atoms: _514  and  _516
REMARK  211  A    between atoms: _516  and  _517
REMARK  212  A    between atoms: _516  and  _519
REMARK  213  A    between atoms: _519  and  _520
REMARK  214  A    between atoms: _525  and  _527
REMARK  215  A    between atoms: _527  and  _528
REMARK  216  A    between atoms: _527  and  _530
REMARK  217  A    between atoms: _533  and  _535
REMARK  218  A    between atoms: _535  and  _536
REMARK  219  A    between atoms: _535  and  _538
REMARK  220  A    between atoms: _538  and  _539
REMARK  221  A    between atoms: _542  and  _544
REMARK  222  A    between atoms: _544  and  _545
REMARK  223  A    between atoms: _547  and  _549
REMARK  224  A    between atoms: _549  and  _550
REMARK  225  A    between atoms: _549  and  _552
REMARK  226  A    between atoms: _552  and  _553
REMARK  227  A    between atoms: _553  and  _554
REMARK  228  A    between atoms: _554  and  _555
REMARK  229  A    between atoms: _564  and  _566
REMARK  230  A    between atoms: _566  and  _567
REMARK  231  A    between atoms: _566  and  _569
REMARK  232  A    between atoms: _569  and  _570
REMARK                            x       y       z     vdW  Elec       q    Type
REMARK                         _______ _______ _______ _____ _____    ______ ____
ROOT
ATOM      1  O   HOH     1     -15.399 -15.446  -5.868  0.00  0.00    +0.000 OA
ENDROOT
TORSDOF 0
REMARK  Name = ../refined-set-2016/4ye3/4ye3_pocket.pdb
REMARK  232 active torsions:
REMARK  status: ('A' for Active; 'I' for Inactive)
REMARK    1  A    between atoms: _1  and  _3
REMARK    2  A    between atoms: _3  and  _4
REMARK    3  A    between atoms: _3  and  _6
REMARK    4  A    between atoms: _6  and  _7
REMARK    5  A    between atoms: _7  and  _8
REMARK    6  A    between atoms: _8  and  _9
REMARK    7  A    between atoms: _18  and  _20
REMARK    8  A    between atoms: _20  and  _21
REMARK    9  A    between atoms: _20  and  _23
REMARK   10  A    between atoms: _23  and  _24
REMARK   11  A    between atoms: _30  and  _32
REMARK   12  A    between atoms: _32  and  _33
REMARK   13  A    between atoms: _32  and  _35
REMARK   14  A    between atoms: _35  and  _36
REMARK   15  A    between atoms: _39  and  _41
REMARK   16  A    between atoms: _41  and  _42
REMARK   17  A    between atoms: _41  and  _44
REMARK   18  A    between atoms: _44  and  _45
REMARK   19  A    between atoms: _48  and  _50
REMARK   20  A    between atoms: _50  and  _51
REMARK   21  A    between atoms: _50  and  _53
REMARK   22  A    between atoms: _53  and  _54
REMARK   23  A    between atoms: _57  and  _59
REMARK   24  A    between atoms: _59  and  _60
REMARK   25  A    between atoms: _59  and  _62
REMARK   26  A    between atoms: _62  and  _63
REMARK   27  A    between atoms: _66  and  _68
REMARK   28  A    between atoms: _68  and  _69
REMARK   29  A    between atoms: _71  and  _73
REMARK   30  A    between atoms: _73  and  _74
REMARK   31  A    between atoms: _77  and  _79
REMARK   32  A    between atoms: _79  and  _80
REMARK   33  A    between atoms: _79  and  _82
REMARK   34  A    between atoms: _82  and  _83
REMARK   35  A    between atoms: _86  and  _88
REMARK   36  A    between atoms: _88  and  _89
REMARK   37  A    between atoms: _88  and  _91
REMARK   38  A    between atoms: _91  and  _92
REMARK   39  A    between atoms: _97  and  _99
REMARK   40  A    between atoms: _99  and  _100
REMARK   41  A    between atoms: _99  and  _102
REMARK   42  A    between atoms: _102  and  _103
REMARK   43  A    between atoms: _106  and  _108
REMARK   44  A    between atoms: _108  and  _109
REMARK   45  A    between atoms: _108  and  _111
REMARK   46  A    between atoms: _111  and  _112
REMARK   47  A    between atoms: _115  and  _117
REMARK   48  A    between atoms: _117  and  _118
REMARK   49  A    between atoms: _117  and  _120
REMARK   50  A    between atoms: _120  and  _121
REMARK   51  A    between atoms: _121  and  _122
REMARK   52  A    between atoms: _122  and  _123
REMARK   53  A    between atoms: _123  and  _124
REMARK   54  A    between atoms: _128  and  _130
REMARK   55  A    between atoms: _130  and  _131
REMARK   56  A    between atoms: _130  and  _133
REMARK   57  A    between atoms: _133  and  _134
REMARK   58  A    between atoms: _134  and  _135
REMARK   59  A    between atoms: _137  and  _139
REMARK   60  A    between atoms: _139  and  _140
REMARK   61  A    between atoms: _139  and  _142
REMARK   62  A    between atoms: _145  and  _147
REMARK   63  A    between atoms: _147  and  _148
REMARK   64  A    between atoms: _150  and  _152
REMARK   65  A    between atoms: _152  and  _153
REMARK   66  A    between atoms: _155  and  _157
REMARK   67  A    between atoms: _157  and  _158
REMARK   68  A    between atoms: _157  and  _160
REMARK   69  A    between atoms: _160  and  _161
REMARK   70  A    between atoms: _164  and  _166
REMARK   71  A    between atoms: _166  and  _167
REMARK   72  A    between atoms: _169  and  _171
REMARK   73  A    between atoms: _171  and  _172
REMARK   74  A    between atoms: _174  and  _176
REMARK   75  A    between atoms: _176  and  _177
REMARK   76  A    between atoms: _176  and  _179
REMARK   77  A    between atoms: _179  and  _180
REMARK   78  A    between atoms: _186  and  _188
REMARK   79  A    between atoms: _188  and  _189
REMARK   80  A    between atoms: _188  and  _191
REMARK   81  A    between atoms: _191  and  _192
REMARK   82  A    between atoms: _195  and  _197
REMARK   83  A    between atoms: _197  and  _198
REMARK   84  A    between atoms: _197  and  _200
REMARK   85  A    between atoms: _200  and  _201
REMARK   86  A    between atoms: _204  and  _206
REMARK   87  A    between atoms: _206  and  _207
REMARK   88  A    between atoms: _206  and  _209
REMARK   89  A    between atoms: _209  and  _210
REMARK   90  A    between atoms: _214  and  _215
REMARK   91  A    between atoms: _220  and  _222
REMARK   92  A    between atoms: _222  and  _223
REMARK   93  A    between atoms: _222  and  _225
REMARK   94  A    between atoms: _228  and  _230
REMARK   95  A    between atoms: _230  and  _231
REMARK   96  A    between atoms: _230  and  _233
REMARK   97  A    between atoms: _233  and  _234
REMARK   98  A    between atoms: _239  and  _241
REMARK   99  A    between atoms: _241  and  _242
REMARK  100  A    between atoms: _241  and  _244
REMARK  101  A    between atoms: _247  and  _249
REMARK  102  A    between atoms: _249  and  _250
REMARK  103  A    between atoms: _249  and  _252
REMARK  104  A    between atoms: _252  and  _253
REMARK  105  A    between atoms: _256  and  _258
REMARK  106  A    between atoms: _258  and  _259
REMARK  107  A    between atoms: _261  and  _263
REMARK  108  A    between atoms: _263  and  _264
REMARK  109  A    between atoms: _263  and  _266
REMARK  110  A    between atoms: _266  and  _267
REMARK  111  A    between atoms: _267  and  _268
REMARK  112  A    between atoms: _268  and  _269
REMARK  113  A    between atoms: _278  and  _280
REMARK  114  A    between atoms: _280  and  _281
REMARK  115  A    between atoms: _280  and  _283
REMARK  116  A    between atoms: _283  and  _284
REMARK  117  A    between atoms: _287  and  _289
REMARK  118  A    between atoms: _289  and  _290
REMARK  119  A    between atoms: _289  and  _292
REMARK  120  A    between atoms: _292  and  _293
REMARK  121  A    between atoms: _293  and  _294
REMARK  122  A    between atoms: _294  and  _295
REMARK  123  A    between atoms: _304  and  _306
REMARK  124  A    between atoms: _306  and  _307
REMARK  125  A    between atoms: _306  and  _309
REMARK  126  A    between atoms: _309  and  _310
REMARK  127  A    between atoms: _316  and  _318
REMARK  128  A    between atoms: _318  and  _319
REMARK  129  A    between atoms: _318  and  _321
REMARK  130  A    between atoms: _321  and  _322
REMARK  131  A    between atoms: _325  and  _327
REMARK  132  A    between atoms: _327  and  _328
REMARK  133  A    between atoms: _327  and  _330
REMARK  134  A    between atoms: _330  and  _331
REMARK  135  A    between atoms: _334  and  _336
REMARK  136  A    between atoms: _336  and  _337
REMARK  137  A    between atoms: _336  and  _339
REMARK  138  A    between atoms: _339  and  _340
REMARK  139  A    between atoms: _343  and  _345
REMARK  140  A    between atoms: _345  and  _346
REMARK  141  A    between atoms: _345  and  _348
REMARK  142  A    between atoms: _348  and  _349
REMARK  143  A    between atoms: _352  and  _354
REMARK  144  A    between atoms: _354  and  _355
REMARK  145  A    between atoms: _357  and  _359
REMARK  146  A    between atoms: _359  and  _360
REMARK  147  A    between atoms: _363  and  _365
REMARK  148  A    between atoms: _365  and  _366
REMARK  149  A    between atoms: _365  and  _368
REMARK  150  A    between atoms: _368  and  _369
REMARK  151  A    between atoms: _372  and  _374
REMARK  152  A    between atoms: _374  and  _375
REMARK  153  A    between atoms: _374  and  _377
REMARK  154  A    between atoms: _377  and  _378
REMARK  155  A    between atoms: _383  and  _385
REMARK  156  A    between atoms: _385  and  _386
REMARK  157  A    between atoms: _385  and  _388
REMARK  158  A    between atoms: _388  and  _389
REMARK  159  A    between atoms: _392  and  _394
REMARK  160  A    between atoms: _394  and  _395
REMARK  161  A    between atoms: _394  and  _397
REMARK  162  A    between atoms: _397  and  _398
REMARK  163  A    between atoms: _401  and  _403
REMARK  164  A    between atoms: _403  and  _404
REMARK  165  A    between atoms: _403  and  _406
REMARK  166  A    between atoms: _406  and  _407
REMARK  167  A    between atoms: _407  and  _408
REMARK  168  A    between atoms: _408  and  _409
REMARK  169  A    between atoms: _409  and  _410
REMARK  170  A    between atoms: _414  and  _416
REMARK  171  A    between atoms: _416  and  _417
REMARK  172  A    between atoms: _416  and  _419
REMARK  173  A    between atoms: _419  and  _420
REMARK  174  A    between atoms: _420  and  _421
REMARK  175  A    between atoms: _423  and  _425
REMARK  176  A    between atoms: _425  and  _426
REMARK  177  A    between atoms: _425  and  _428
REMARK  178  A    between atoms: _431  and  _433
REMARK  179  A    between atoms: _433  and  _434
REMARK  180  A    between atoms: _436  and  _438
REMARK  181  A    between atoms: _438  and  _439
REMARK  182  A    between atoms: _441  and  _443
REMARK  183  A    between atoms: _443  and  _444
REMARK  184  A    between atoms: _443  and  _446
REMARK  185  A    between atoms: _446  and  _447
REMARK  186  A    between atoms: _450  and  _452
REMARK  187  A    between atoms: _452  and  _453
REMARK  188  A    between atoms: _455  and  _457
REMARK  189  A    between atoms: _457  and  _458
REMARK  190  A    between atoms: _460  and  _462
REMARK  191  A    between atoms: _462  and  _463
REMARK  192  A    between atoms: _462  and  _465
REMARK  193  A    between atoms: _465  and  _466
REMARK  194  A    between atoms: _472  and  _474
REMARK  195  A    between atoms: _474  and  _475
REMARK  196  A    between atoms: _474  and  _477
REMARK  197  A    between atoms: _477  and  _478
REMARK  198  A    between atoms: _481  and  _483
REMARK  199  A    between atoms: _483  and  _484
REMARK  200  A    between atoms: _483  and  _486
REMARK  201  A    between atoms: _486  and  _487
REMARK  202  A    between atoms: _490  and  _492
REMARK  203  A    between atoms: _492  and  _493
REMARK  204  A    between atoms: _492  and  _495
REMARK  205  A    between atoms: _495  and  _496
REMARK  206  A    between atoms: _500  and  _501
REMARK  207  A    between atoms: _506  and  _508
REMARK  208  A    between atoms: _508  and  _509
REMARK  209  A    between atoms: _508  and  _511
REMARK  210  A    between atoms: _514  and  _516
REMARK  211  A    between atoms: _516  and  _517
REMARK  212  A    between atoms: _516  and  _519
REMARK  213  A    between atoms: _519  and  _520
REMARK  214  A    between atoms: _525  and  _527
REMARK  215  A    between atoms: _527  and  _528
REMARK  216  A    between atoms: _527  and  _530
REMARK  217  A    between atoms: _533  and  _535
REMARK  218  A    between atoms: _535  and  _536
REMARK  219  A    between atoms: _535  and  _538
REMARK  220  A    between atoms: _538  and  _539
REMARK  221  A    between atoms: _542  and  _544
REMARK  222  A    between atoms: _544  and  _545
REMARK  223  A    between atoms: _547  and  _549
REMARK  224  A    between atoms: _549  and  _550
REMARK  225  A    between atoms: _549  and  _552
REMARK  226  A    between atoms: _552  and  _553
REMARK  227  A    between atoms: _553  and  _554
REMARK  228  A    between atoms: _554  and  _555
REMARK  229  A    between atoms: _564  and  _566
REMARK  230  A    between atoms: _566  and  _567
REMARK  231  A    between atoms: _566  and  _569
REMARK  232  A    between atoms: _569  and  _570
REMARK                            x       y       z     vdW  Elec       q    Type
REMARK                         _______ _______ _______ _____ _____    ______ ____
ROOT
ATOM      1  O   HOH     1     -16.280 -18.102  -5.959  0.00  0.00    +0.000 OA
ENDROOT
TORSDOF 0
REMARK  Name = ../refined-set-2016/4ye3/4ye3_pocket.pdb
REMARK  232 active torsions:
REMARK  status: ('A' for Active; 'I' for Inactive)
REMARK    1  A    between atoms: _1  and  _3
REMARK    2  A    between atoms: _3  and  _4
REMARK    3  A    between atoms: _3  and  _6
REMARK    4  A    between atoms: _6  and  _7
REMARK    5  A    between atoms: _7  and  _8
REMARK    6  A    between atoms: _8  and  _9
REMARK    7  A    between atoms: _18  and  _20
REMARK    8  A    between atoms: _20  and  _21
REMARK    9  A    between atoms: _20  and  _23
REMARK   10  A    between atoms: _23  and  _24
REMARK   11  A    between atoms: _30  and  _32
REMARK   12  A    between atoms: _32  and  _33
REMARK   13  A    between atoms: _32  and  _35
REMARK   14  A    between atoms: _35  and  _36
REMARK   15  A    between atoms: _39  and  _41
REMARK   16  A    between atoms: _41  and  _42
REMARK   17  A    between atoms: _41  and  _44
REMARK   18  A    between atoms: _44  and  _45
REMARK   19  A    between atoms: _48  and  _50
REMARK   20  A    between atoms: _50  and  _51
REMARK   21  A    between atoms: _50  and  _53
REMARK   22  A    between atoms: _53  and  _54
REMARK   23  A    between atoms: _57  and  _59
REMARK   24  A    between atoms: _59  and  _60
REMARK   25  A    between atoms: _59  and  _62
REMARK   26  A    between atoms: _62  and  _63
REMARK   27  A    between atoms: _66  and  _68
REMARK   28  A    between atoms: _68  and  _69
REMARK   29  A    between atoms: _71  and  _73
REMARK   30  A    between atoms: _73  and  _74
REMARK   31  A    between atoms: _77  and  _79
REMARK   32  A    between atoms: _79  and  _80
REMARK   33  A    between atoms: _79  and  _82
REMARK   34  A    between atoms: _82  and  _83
REMARK   35  A    between atoms: _86  and  _88
REMARK   36  A    between atoms: _88  and  _89
REMARK   37  A    between atoms: _88  and  _91
REMARK   38  A    between atoms: _91  and  _92
REMARK   39  A    between atoms: _97  and  _99
REMARK   40  A    between atoms: _99  and  _100
REMARK   41  A    between atoms: _99  and  _102
REMARK   42  A    between atoms: _102  and  _103
REMARK   43  A    between atoms: _106  and  _108
REMARK   44  A    between atoms: _108  and  _109
REMARK   45  A    between atoms: _108  and  _111
REMARK   46  A    between atoms: _111  and  _112
REMARK   47  A    between atoms: _115  and  _117
REMARK   48  A    between atoms: _117  and  _118
REMARK   49  A    between atoms: _117  and  _120
REMARK   50  A    between atoms: _120  and  _121
REMARK   51  A    between atoms: _121  and  _122
REMARK   52  A    between atoms: _122  and  _123
REMARK   53  A    between atoms: _123  and  _124
REMARK   54  A    between atoms: _128  and  _130
REMARK   55  A    between atoms: _130  and  _131
REMARK   56  A    between atoms: _130  and  _133
REMARK   57  A    between atoms: _133  and  _134
REMARK   58  A    between atoms: _134  and  _135
REMARK   59  A    between atoms: _137  and  _139
REMARK   60  A    between atoms: _139  and  _140
REMARK   61  A    between atoms: _139  and  _142
REMARK   62  A    between atoms: _145  and  _147
REMARK   63  A    between atoms: _147  and  _148
REMARK   64  A    between atoms: _150  and  _152
REMARK   65  A    between atoms: _152  and  _153
REMARK   66  A    between atoms: _155  and  _157
REMARK   67  A    between atoms: _157  and  _158
REMARK   68  A    between atoms: _157  and  _160
REMARK   69  A    between atoms: _160  and  _161
REMARK   70  A    between atoms: _164  and  _166
REMARK   71  A    between atoms: _166  and  _167
REMARK   72  A    between atoms: _169  and  _171
REMARK   73  A    between atoms: _171  and  _172
REMARK   74  A    between atoms: _174  and  _176
REMARK   75  A    between atoms: _176  and  _177
REMARK   76  A    between atoms: _176  and  _179
REMARK   77  A    between atoms: _179  and  _180
REMARK   78  A    between atoms: _186  and  _188
REMARK   79  A    between atoms: _188  and  _189
REMARK   80  A    between atoms: _188  and  _191
REMARK   81  A    between atoms: _191  and  _192
REMARK   82  A    between atoms: _195  and  _197
REMARK   83  A    between atoms: _197  and  _198
REMARK   84  A    between atoms: _197  and  _200
REMARK   85  A    between atoms: _200  and  _201
REMARK   86  A    between atoms: _204  and  _206
REMARK   87  A    between atoms: _206  and  _207
REMARK   88  A    between atoms: _206  and  _209
REMARK   89  A    between atoms: _209  and  _210
REMARK   90  A    between atoms: _214  and  _215
REMARK   91  A    between atoms: _220  and  _222
REMARK   92  A    between atoms: _222  and  _223
REMARK   93  A    between atoms: _222  and  _225
REMARK   94  A    between atoms: _228  and  _230
REMARK   95  A    between atoms: _230  and  _231
REMARK   96  A    between atoms: _230  and  _233
REMARK   97  A    between atoms: _233  and  _234
REMARK   98  A    between atoms: _239  and  _241
REMARK   99  A    between atoms: _241  and  _242
REMARK  100  A    between atoms: _241  and  _244
REMARK  101  A    between atoms: _247  and  _249
REMARK  102  A    between atoms: _249  and  _250
REMARK  103  A    between atoms: _249  and  _252
REMARK  104  A    between atoms: _252  and  _253
REMARK  105  A    between atoms: _256  and  _258
REMARK  106  A    between atoms: _258  and  _259
REMARK  107  A    between atoms: _261  and  _263
REMARK  108  A    between atoms: _263  and  _264
REMARK  109  A    between atoms: _263  and  _266
REMARK  110  A    between atoms: _266  and  _267
REMARK  111  A    between atoms: _267  and  _268
REMARK  112  A    between atoms: _268  and  _269
REMARK  113  A    between atoms: _278  and  _280
REMARK  114  A    between atoms: _280  and  _281
REMARK  115  A    between atoms: _280  and  _283
REMARK  116  A    between atoms: _283  and  _284
REMARK  117  A    between atoms: _287  and  _289
REMARK  118  A    between atoms: _289  and  _290
REMARK  119  A    between atoms: _289  and  _292
REMARK  120  A    between atoms: _292  and  _293
REMARK  121  A    between atoms: _293  and  _294
REMARK  122  A    between atoms: _294  and  _295
REMARK  123  A    between atoms: _304  and  _306
REMARK  124  A    between atoms: _306  and  _307
REMARK  125  A    between atoms: _306  and  _309
REMARK  126  A    between atoms: _309  and  _310
REMARK  127  A    between atoms: _316  and  _318
REMARK  128  A    between atoms: _318  and  _319
REMARK  129  A    between atoms: _318  and  _321
REMARK  130  A    between atoms: _321  and  _322
REMARK  131  A    between atoms: _325  and  _327
REMARK  132  A    between atoms: _327  and  _328
REMARK  133  A    between atoms: _327  and  _330
REMARK  134  A    between atoms: _330  and  _331
REMARK  135  A    between atoms: _334  and  _336
REMARK  136  A    between atoms: _336  and  _337
REMARK  137  A    between atoms: _336  and  _339
REMARK  138  A    between atoms: _339  and  _340
REMARK  139  A    between atoms: _343  and  _345
REMARK  140  A    between atoms: _345  and  _346
REMARK  141  A    between atoms: _345  and  _348
REMARK  142  A    between atoms: _348  and  _349
REMARK  143  A    between atoms: _352  and  _354
REMARK  144  A    between atoms: _354  and  _355
REMARK  145  A    between atoms: _357  and  _359
REMARK  146  A    between atoms: _359  and  _360
REMARK  147  A    between atoms: _363  and  _365
REMARK  148  A    between atoms: _365  and  _366
REMARK  149  A    between atoms: _365  and  _368
REMARK  150  A    between atoms: _368  and  _369
REMARK  151  A    between atoms: _372  and  _374
REMARK  152  A    between atoms: _374  and  _375
REMARK  153  A    between atoms: _374  and  _377
REMARK  154  A    between atoms: _377  and  _378
REMARK  155  A    between atoms: _383  and  _385
REMARK  156  A    between atoms: _385  and  _386
REMARK  157  A    between atoms: _385  and  _388
REMARK  158  A    between atoms: _388  and  _389
REMARK  159  A    between atoms: _392  and  _394
REMARK  160  A    between atoms: _394  and  _395
REMARK  161  A    between atoms: _394  and  _397
REMARK  162  A    between atoms: _397  and  _398
REMARK  163  A    between atoms: _401  and  _403
REMARK  164  A    between atoms: _403  and  _404
REMARK  165  A    between atoms: _403  and  _406
REMARK  166  A    between atoms: _406  and  _407
REMARK  167  A    between atoms: _407  and  _408
REMARK  168  A    between atoms: _408  and  _409
REMARK  169  A    between atoms: _409  and  _410
REMARK  170  A    between atoms: _414  and  _416
REMARK  171  A    between atoms: _416  and  _417
REMARK  172  A    between atoms: _416  and  _419
REMARK  173  A    between atoms: _419  and  _420
REMARK  174  A    between atoms: _420  and  _421
REMARK  175  A    between atoms: _423  and  _425
REMARK  176  A    between atoms: _425  and  _426
REMARK  177  A    between atoms: _425  and  _428
REMARK  178  A    between atoms: _431  and  _433
REMARK  179  A    between atoms: _433  and  _434
REMARK  180  A    between atoms: _436  and  _438
REMARK  181  A    between atoms: _438  and  _439
REMARK  182  A    between atoms: _441  and  _443
REMARK  183  A    between atoms: _443  and  _444
REMARK  184  A    between atoms: _443  and  _446
REMARK  185  A    between atoms: _446  and  _447
REMARK  186  A    between atoms: _450  and  _452
REMARK  187  A    between atoms: _452  and  _453
REMARK  188  A    between atoms: _455  and  _457
REMARK  189  A    between atoms: _457  and  _458
REMARK  190  A    between atoms: _460  and  _462
REMARK  191  A    between atoms: _462  and  _463
REMARK  192  A    between atoms: _462  and  _465
REMARK  193  A    between atoms: _465  and  _466
REMARK  194  A    between atoms: _472  and  _474
REMARK  195  A    between atoms: _474  and  _475
REMARK  196  A    between atoms: _474  and  _477
REMARK  197  A    between atoms: _477  and  _478
REMARK  198  A    between atoms: _481  and  _483
REMARK  199  A    between atoms: _483  and  _484
REMARK  200  A    between atoms: _483  and  _486
REMARK  201  A    between atoms: _486  and  _487
REMARK  202  A    between atoms: _490  and  _492
REMARK  203  A    between atoms: _492  and  _493
REMARK  204  A    between atoms: _492  and  _495
REMARK  205  A    between atoms: _495  and  _496
REMARK  206  A    between atoms: _500  and  _501
REMARK  207  A    between atoms: _506  and  _508
REMARK  208  A    between atoms: _508  and  _509
REMARK  209  A    between atoms: _508  and  _511
REMARK  210  A    between atoms: _514  and  _516
REMARK  211  A    between atoms: _516  and  _517
REMARK  212  A    between atoms: _516  and  _519
REMARK  213  A    between atoms: _519  and  _520
REMARK  214  A    between atoms: _525  and  _527
REMARK  215  A    between atoms: _527  and  _528
REMARK  216  A    between atoms: _527  and  _530
REMARK  217  A    between atoms: _533  and  _535
REMARK  218  A    between atoms: _535  and  _536
REMARK  219  A    between atoms: _535  and  _538
REMARK  220  A    between atoms: _538  and  _539
REMARK  221  A    between atoms: _542  and  _544
REMARK  222  A    between atoms: _544  and  _545
REMARK  223  A    between atoms: _547  and  _549
REMARK  224  A    between atoms: _549  and  _550
REMARK  225  A    between atoms: _549  and  _552
REMARK  226  A    between atoms: _552  and  _553
REMARK  227  A    between atoms: _553  and  _554
REMARK  228  A    between atoms: _554  and  _555
REMARK  229  A    between atoms: _564  and  _566
REMARK  230  A    between atoms: _566  and  _567
REMARK  231  A    between atoms: _566  and  _569
REMARK  232  A    between atoms: _569  and  _570
REMARK                            x       y       z     vdW  Elec       q    Type
REMARK                         _______ _______ _______ _____ _____    ______ ____
ROOT
ATOM      1  O   HOH     1      -7.974 -18.806 -14.652  0.00  0.00    +0.000 OA
ENDROOT
TORSDOF 0
REMARK  Name = ../refined-set-2016/4ye3/4ye3_pocket.pdb
REMARK  232 active torsions:
REMARK  status: ('A' for Active; 'I' for Inactive)
REMARK    1  A    between atoms: _1  and  _3
REMARK    2  A    between atoms: _3  and  _4
REMARK    3  A    between atoms: _3  and  _6
REMARK    4  A    between atoms: _6  and  _7
REMARK    5  A    between atoms: _7  and  _8
REMARK    6  A    between atoms: _8  and  _9
REMARK    7  A    between atoms: _18  and  _20
REMARK    8  A    between atoms: _20  and  _21
REMARK    9  A    between atoms: _20  and  _23
REMARK   10  A    between atoms: _23  and  _24
REMARK   11  A    between atoms: _30  and  _32
REMARK   12  A    between atoms: _32  and  _33
REMARK   13  A    between atoms: _32  and  _35
REMARK   14  A    between atoms: _35  and  _36
REMARK   15  A    between atoms: _39  and  _41
REMARK   16  A    between atoms: _41  and  _42
REMARK   17  A    between atoms: _41  and  _44
REMARK   18  A    between atoms: _44  and  _45
REMARK   19  A    between atoms: _48  and  _50
REMARK   20  A    between atoms: _50  and  _51
REMARK   21  A    between atoms: _50  and  _53
REMARK   22  A    between atoms: _53  and  _54
REMARK   23  A    between atoms: _57  and  _59
REMARK   24  A    between atoms: _59  and  _60
REMARK   25  A    between atoms: _59  and  _62
REMARK   26  A    between atoms: _62  and  _63
REMARK   27  A    between atoms: _66  and  _68
REMARK   28  A    between atoms: _68  and  _69
REMARK   29  A    between atoms: _71  and  _73
REMARK   30  A    between atoms: _73  and  _74
REMARK   31  A    between atoms: _77  and  _79
REMARK   32  A    between atoms: _79  and  _80
REMARK   33  A    between atoms: _79  and  _82
REMARK   34  A    between atoms: _82  and  _83
REMARK   35  A    between atoms: _86  and  _88
REMARK   36  A    between atoms: _88  and  _89
REMARK   37  A    between atoms: _88  and  _91
REMARK   38  A    between atoms: _91  and  _92
REMARK   39  A    between atoms: _97  and  _99
REMARK   40  A    between atoms: _99  and  _100
REMARK   41  A    between atoms: _99  and  _102
REMARK   42  A    between atoms: _102  and  _103
REMARK   43  A    between atoms: _106  and  _108
REMARK   44  A    between atoms: _108  and  _109
REMARK   45  A    between atoms: _108  and  _111
REMARK   46  A    between atoms: _111  and  _112
REMARK   47  A    between atoms: _115  and  _117
REMARK   48  A    between atoms: _117  and  _118
REMARK   49  A    between atoms: _117  and  _120
REMARK   50  A    between atoms: _120  and  _121
REMARK   51  A    between atoms: _121  and  _122
REMARK   52  A    between atoms: _122  and  _123
REMARK   53  A    between atoms: _123  and  _124
REMARK   54  A    between atoms: _128  and  _130
REMARK   55  A    between atoms: _130  and  _131
REMARK   56  A    between atoms: _130  and  _133
REMARK   57  A    between atoms: _133  and  _134
REMARK   58  A    between atoms: _134  and  _135
REMARK   59  A    between atoms: _137  and  _139
REMARK   60  A    between atoms: _139  and  _140
REMARK   61  A    between atoms: _139  and  _142
REMARK   62  A    between atoms: _145  and  _147
REMARK   63  A    between atoms: _147  and  _148
REMARK   64  A    between atoms: _150  and  _152
REMARK   65  A    between atoms: _152  and  _153
REMARK   66  A    between atoms: _155  and  _157
REMARK   67  A    between atoms: _157  and  _158
REMARK   68  A    between atoms: _157  and  _160
REMARK   69  A    between atoms: _160  and  _161
REMARK   70  A    between atoms: _164  and  _166
REMARK   71  A    between atoms: _166  and  _167
REMARK   72  A    between atoms: _169  and  _171
REMARK   73  A    between atoms: _171  and  _172
REMARK   74  A    between atoms: _174  and  _176
REMARK   75  A    between atoms: _176  and  _177
REMARK   76  A    between atoms: _176  and  _179
REMARK   77  A    between atoms: _179  and  _180
REMARK   78  A    between atoms: _186  and  _188
REMARK   79  A    between atoms: _188  and  _189
REMARK   80  A    between atoms: _188  and  _191
REMARK   81  A    between atoms: _191  and  _192
REMARK   82  A    between atoms: _195  and  _197
REMARK   83  A    between atoms: _197  and  _198
REMARK   84  A    between atoms: _197  and  _200
REMARK   85  A    between atoms: _200  and  _201
REMARK   86  A    between atoms: _204  and  _206
REMARK   87  A    between atoms: _206  and  _207
REMARK   88  A    between atoms: _206  and  _209
REMARK   89  A    between atoms: _209  and  _210
REMARK   90  A    between atoms: _214  and  _215
REMARK   91  A    between atoms: _220  and  _222
REMARK   92  A    between atoms: _222  and  _223
REMARK   93  A    between atoms: _222  and  _225
REMARK   94  A    between atoms: _228  and  _230
REMARK   95  A    between atoms: _230  and  _231
REMARK   96  A    between atoms: _230  and  _233
REMARK   97  A    between atoms: _233  and  _234
REMARK   98  A    between atoms: _239  and  _241
REMARK   99  A    between atoms: _241  and  _242
REMARK  100  A    between atoms: _241  and  _244
REMARK  101  A    between atoms: _247  and  _249
REMARK  102  A    between atoms: _249  and  _250
REMARK  103  A    between atoms: _249  and  _252
REMARK  104  A    between atoms: _252  and  _253
REMARK  105  A    between atoms: _256  and  _258
REMARK  106  A    between atoms: _258  and  _259
REMARK  107  A    between atoms: _261  and  _263
REMARK  108  A    between atoms: _263  and  _264
REMARK  109  A    between atoms: _263  and  _266
REMARK  110  A    between atoms: _266  and  _267
REMARK  111  A    between atoms: _267  and  _268
REMARK  112  A    between atoms: _268  and  _269
REMARK  113  A    between atoms: _278  and  _280
REMARK  114  A    between atoms: _280  and  _281
REMARK  115  A    between atoms: _280  and  _283
REMARK  116  A    between atoms: _283  and  _284
REMARK  117  A    between atoms: _287  and  _289
REMARK  118  A    between atoms: _289  and  _290
REMARK  119  A    between atoms: _289  and  _292
REMARK  120  A    between atoms: _292  and  _293
REMARK  121  A    between atoms: _293  and  _294
REMARK  122  A    between atoms: _294  and  _295
REMARK  123  A    between atoms: _304  and  _306
REMARK  124  A    between atoms: _306  and  _307
REMARK  125  A    between atoms: _306  and  _309
REMARK  126  A    between atoms: _309  and  _310
REMARK  127  A    between atoms: _316  and  _318
REMARK  128  A    between atoms: _318  and  _319
REMARK  129  A    between atoms: _318  and  _321
REMARK  130  A    between atoms: _321  and  _322
REMARK  131  A    between atoms: _325  and  _327
REMARK  132  A    between atoms: _327  and  _328
REMARK  133  A    between atoms: _327  and  _330
REMARK  134  A    between atoms: _330  and  _331
REMARK  135  A    between atoms: _334  and  _336
REMARK  136  A    between atoms: _336  and  _337
REMARK  137  A    between atoms: _336  and  _339
REMARK  138  A    between atoms: _339  and  _340
REMARK  139  A    between atoms: _343  and  _345
REMARK  140  A    between atoms: _345  and  _346
REMARK  141  A    between atoms: _345  and  _348
REMARK  142  A    between atoms: _348  and  _349
REMARK  143  A    between atoms: _352  and  _354
REMARK  144  A    between atoms: _354  and  _355
REMARK  145  A    between atoms: _357  and  _359
REMARK  146  A    between atoms: _359  and  _360
REMARK  147  A    between atoms: _363  and  _365
REMARK  148  A    between atoms: _365  and  _366
REMARK  149  A    between atoms: _365  and  _368
REMARK  150  A    between atoms: _368  and  _369
REMARK  151  A    between atoms: _372  and  _374
REMARK  152  A    between atoms: _374  and  _375
REMARK  153  A    between atoms: _374  and  _377
REMARK  154  A    between atoms: _377  and  _378
REMARK  155  A    between atoms: _383  and  _385
REMARK  156  A    between atoms: _385  and  _386
REMARK  157  A    between atoms: _385  and  _388
REMARK  158  A    between atoms: _388  and  _389
REMARK  159  A    between atoms: _392  and  _394
REMARK  160  A    between atoms: _394  and  _395
REMARK  161  A    between atoms: _394  and  _397
REMARK  162  A    between atoms: _397  and  _398
REMARK  163  A    between atoms: _401  and  _403
REMARK  164  A    between atoms: _403  and  _404
REMARK  165  A    between atoms: _403  and  _406
REMARK  166  A    between atoms: _406  and  _407
REMARK  167  A    between atoms: _407  and  _408
REMARK  168  A    between atoms: _408  and  _409
REMARK  169  A    between atoms: _409  and  _410
REMARK  170  A    between atoms: _414  and  _416
REMARK  171  A    between atoms: _416  and  _417
REMARK  172  A    between atoms: _416  and  _419
REMARK  173  A    between atoms: _419  and  _420
REMARK  174  A    between atoms: _420  and  _421
REMARK  175  A    between atoms: _423  and  _425
REMARK  176  A    between atoms: _425  and  _426
REMARK  177  A    between atoms: _425  and  _428
REMARK  178  A    between atoms: _431  and  _433
REMARK  179  A    between atoms: _433  and  _434
REMARK  180  A    between atoms: _436  and  _438
REMARK  181  A    between atoms: _438  and  _439
REMARK  182  A    between atoms: _441  and  _443
REMARK  183  A    between atoms: _443  and  _444
REMARK  184  A    between atoms: _443  and  _446
REMARK  185  A    between atoms: _446  and  _447
REMARK  186  A    between atoms: _450  and  _452
REMARK  187  A    between atoms: _452  and  _453
REMARK  188  A    between atoms: _455  and  _457
REMARK  189  A    between atoms: _457  and  _458
REMARK  190  A    between atoms: _460  and  _462
REMARK  191  A    between atoms: _462  and  _463
REMARK  192  A    between atoms: _462  and  _465
REMARK  193  A    between atoms: _465  and  _466
REMARK  194  A    between atoms: _472  and  _474
REMARK  195  A    between atoms: _474  and  _475
REMARK  196  A    between atoms: _474  and  _477
REMARK  197  A    between atoms: _477  and  _478
REMARK  198  A    between atoms: _481  and  _483
REMARK  199  A    between atoms: _483  and  _484
REMARK  200  A    between atoms: _483  and  _486
REMARK  201  A    between atoms: _486  and  _487
REMARK  202  A    between atoms: _490  and  _492
REMARK  203  A    between atoms: _492  and  _493
REMARK  204  A    between atoms: _492  and  _495
REMARK  205  A    between atoms: _495  and  _496
REMARK  206  A    between atoms: _500  and  _501
REMARK  207  A    between atoms: _506  and  _508
REMARK  208  A    between atoms: _508  and  _509
REMARK  209  A    between atoms: _508  and  _511
REMARK  210  A    between atoms: _514  and  _516
REMARK  211  A    between atoms: _516  and  _517
REMARK  212  A    between atoms: _516  and  _519
REMARK  213  A    between atoms: _519  and  _520
REMARK  214  A    between atoms: _525  and  _527
REMARK  215  A    between atoms: _527  and  _528
REMARK  216  A    between atoms: _527  and  _530
REMARK  217  A    between atoms: _533  and  _535
REMARK  218  A    between atoms: _535  and  _536
REMARK  219  A    between atoms: _535  and  _538
REMARK  220  A    between atoms: _538  and  _539
REMARK  221  A    between atoms: _542  and  _544
REMARK  222  A    between atoms: _544  and  _545
REMARK  223  A    between atoms: _547  and  _549
REMARK  224  A    between atoms: _549  and  _550
REMARK  225  A    between atoms: _549  and  _552
REMARK  226  A    between atoms: _552  and  _553
REMARK  227  A    between atoms: _553  and  _554
REMARK  228  A    between atoms: _554  and  _555
REMARK  229  A    between atoms: _564  and  _566
REMARK  230  A    between atoms: _566  and  _567
REMARK  231  A    between atoms: _566  and  _569
REMARK  232  A    between atoms: _569  and  _570
REMARK                            x       y       z     vdW  Elec       q    Type
REMARK                         _______ _______ _______ _____ _____    ______ ____
ROOT
ATOM      1  O   HOH     1      -2.958 -20.491   2.482  0.00  0.00    +0.000 OA
ENDROOT
TORSDOF 0
REMARK  Name = ../refined-set-2016/4ye3/4ye3_pocket.pdb
REMARK  232 active torsions:
REMARK  status: ('A' for Active; 'I' for Inactive)
REMARK    1  A    between atoms: _1  and  _3
REMARK    2  A    between atoms: _3  and  _4
REMARK    3  A    between atoms: _3  and  _6
REMARK    4  A    between atoms: _6  and  _7
REMARK    5  A    between atoms: _7  and  _8
REMARK    6  A    between atoms: _8  and  _9
REMARK    7  A    between atoms: _18  and  _20
REMARK    8  A    between atoms: _20  and  _21
REMARK    9  A    between atoms: _20  and  _23
REMARK   10  A    between atoms: _23  and  _24
REMARK   11  A    between atoms: _30  and  _32
REMARK   12  A    between atoms: _32  and  _33
REMARK   13  A    between atoms: _32  and  _35
REMARK   14  A    between atoms: _35  and  _36
REMARK   15  A    between atoms: _39  and  _41
REMARK   16  A    between atoms: _41  and  _42
REMARK   17  A    between atoms: _41  and  _44
REMARK   18  A    between atoms: _44  and  _45
REMARK   19  A    between atoms: _48  and  _50
REMARK   20  A    between atoms: _50  and  _51
REMARK   21  A    between atoms: _50  and  _53
REMARK   22  A    between atoms: _53  and  _54
REMARK   23  A    between atoms: _57  and  _59
REMARK   24  A    between atoms: _59  and  _60
REMARK   25  A    between atoms: _59  and  _62
REMARK   26  A    between atoms: _62  and  _63
REMARK   27  A    between atoms: _66  and  _68
REMARK   28  A    between atoms: _68  and  _69
REMARK   29  A    between atoms: _71  and  _73
REMARK   30  A    between atoms: _73  and  _74
REMARK   31  A    between atoms: _77  and  _79
REMARK   32  A    between atoms: _79  and  _80
REMARK   33  A    between atoms: _79  and  _82
REMARK   34  A    between atoms: _82  and  _83
REMARK   35  A    between atoms: _86  and  _88
REMARK   36  A    between atoms: _88  and  _89
REMARK   37  A    between atoms: _88  and  _91
REMARK   38  A    between atoms: _91  and  _92
REMARK   39  A    between atoms: _97  and  _99
REMARK   40  A    between atoms: _99  and  _100
REMARK   41  A    between atoms: _99  and  _102
REMARK   42  A    between atoms: _102  and  _103
REMARK   43  A    between atoms: _106  and  _108
REMARK   44  A    between atoms: _108  and  _109
REMARK   45  A    between atoms: _108  and  _111
REMARK   46  A    between atoms: _111  and  _112
REMARK   47  A    between atoms: _115  and  _117
REMARK   48  A    between atoms: _117  and  _118
REMARK   49  A    between atoms: _117  and  _120
REMARK   50  A    between atoms: _120  and  _121
REMARK   51  A    between atoms: _121  and  _122
REMARK   52  A    between atoms: _122  and  _123
REMARK   53  A    between atoms: _123  and  _124
REMARK   54  A    between atoms: _128  and  _130
REMARK   55  A    between atoms: _130  and  _131
REMARK   56  A    between atoms: _130  and  _133
REMARK   57  A    between atoms: _133  and  _134
REMARK   58  A    between atoms: _134  and  _135
REMARK   59  A    between atoms: _137  and  _139
REMARK   60  A    between atoms: _139  and  _140
REMARK   61  A    between atoms: _139  and  _142
REMARK   62  A    between atoms: _145  and  _147
REMARK   63  A    between atoms: _147  and  _148
REMARK   64  A    between atoms: _150  and  _152
REMARK   65  A    between atoms: _152  and  _153
REMARK   66  A    between atoms: _155  and  _157
REMARK   67  A    between atoms: _157  and  _158
REMARK   68  A    between atoms: _157  and  _160
REMARK   69  A    between atoms: _160  and  _161
REMARK   70  A    between atoms: _164  and  _166
REMARK   71  A    between atoms: _166  and  _167
REMARK   72  A    between atoms: _169  and  _171
REMARK   73  A    between atoms: _171  and  _172
REMARK   74  A    between atoms: _174  and  _176
REMARK   75  A    between atoms: _176  and  _177
REMARK   76  A    between atoms: _176  and  _179
REMARK   77  A    between atoms: _179  and  _180
REMARK   78  A    between atoms: _186  and  _188
REMARK   79  A    between atoms: _188  and  _189
REMARK   80  A    between atoms: _188  and  _191
REMARK   81  A    between atoms: _191  and  _192
REMARK   82  A    between atoms: _195  and  _197
REMARK   83  A    between atoms: _197  and  _198
REMARK   84  A    between atoms: _197  and  _200
REMARK   85  A    between atoms: _200  and  _201
REMARK   86  A    between atoms: _204  and  _206
REMARK   87  A    between atoms: _206  and  _207
REMARK   88  A    between atoms: _206  and  _209
REMARK   89  A    between atoms: _209  and  _210
REMARK   90  A    between atoms: _214  and  _215
REMARK   91  A    between atoms: _220  and  _222
REMARK   92  A    between atoms: _222  and  _223
REMARK   93  A    between atoms: _222  and  _225
REMARK   94  A    between atoms: _228  and  _230
REMARK   95  A    between atoms: _230  and  _231
REMARK   96  A    between atoms: _230  and  _233
REMARK   97  A    between atoms: _233  and  _234
REMARK   98  A    between atoms: _239  and  _241
REMARK   99  A    between atoms: _241  and  _242
REMARK  100  A    between atoms: _241  and  _244
REMARK  101  A    between atoms: _247  and  _249
REMARK  102  A    between atoms: _249  and  _250
REMARK  103  A    between atoms: _249  and  _252
REMARK  104  A    between atoms: _252  and  _253
REMARK  105  A    between atoms: _256  and  _258
REMARK  106  A    between atoms: _258  and  _259
REMARK  107  A    between atoms: _261  and  _263
REMARK  108  A    between atoms: _263  and  _264
REMARK  109  A    between atoms: _263  and  _266
REMARK  110  A    between atoms: _266  and  _267
REMARK  111  A    between atoms: _267  and  _268
REMARK  112  A    between atoms: _268  and  _269
REMARK  113  A    between atoms: _278  and  _280
REMARK  114  A    between atoms: _280  and  _281
REMARK  115  A    between atoms: _280  and  _283
REMARK  116  A    between atoms: _283  and  _284
REMARK  117  A    between atoms: _287  and  _289
REMARK  118  A    between atoms: _289  and  _290
REMARK  119  A    between atoms: _289  and  _292
REMARK  120  A    between atoms: _292  and  _293
REMARK  121  A    between atoms: _293  and  _294
REMARK  122  A    between atoms: _294  and  _295
REMARK  123  A    between atoms: _304  and  _306
REMARK  124  A    between atoms: _306  and  _307
REMARK  125  A    between atoms: _306  and  _309
REMARK  126  A    between atoms: _309  and  _310
REMARK  127  A    between atoms: _316  and  _318
REMARK  128  A    between atoms: _318  and  _319
REMARK  129  A    between atoms: _318  and  _321
REMARK  130  A    between atoms: _321  and  _322
REMARK  131  A    between atoms: _325  and  _327
REMARK  132  A    between atoms: _327  and  _328
REMARK  133  A    between atoms: _327  and  _330
REMARK  134  A    between atoms: _330  and  _331
REMARK  135  A    between atoms: _334  and  _336
REMARK  136  A    between atoms: _336  and  _337
REMARK  137  A    between atoms: _336  and  _339
REMARK  138  A    between atoms: _339  and  _340
REMARK  139  A    between atoms: _343  and  _345
REMARK  140  A    between atoms: _345  and  _346
REMARK  141  A    between atoms: _345  and  _348
REMARK  142  A    between atoms: _348  and  _349
REMARK  143  A    between atoms: _352  and  _354
REMARK  144  A    between atoms: _354  and  _355
REMARK  145  A    between atoms: _357  and  _359
REMARK  146  A    between atoms: _359  and  _360
REMARK  147  A    between atoms: _363  and  _365
REMARK  148  A    between atoms: _365  and  _366
REMARK  149  A    between atoms: _365  and  _368
REMARK  150  A    between atoms: _368  and  _369
REMARK  151  A    between atoms: _372  and  _374
REMARK  152  A    between atoms: _374  and  _375
REMARK  153  A    between atoms: _374  and  _377
REMARK  154  A    between atoms: _377  and  _378
REMARK  155  A    between atoms: _383  and  _385
REMARK  156  A    between atoms: _385  and  _386
REMARK  157  A    between atoms: _385  and  _388
REMARK  158  A    between atoms: _388  and  _389
REMARK  159  A    between atoms: _392  and  _394
REMARK  160  A    between atoms: _394  and  _395
REMARK  161  A    between atoms: _394  and  _397
REMARK  162  A    between atoms: _397  and  _398
REMARK  163  A    between atoms: _401  and  _403
REMARK  164  A    between atoms: _403  and  _404
REMARK  165  A    between atoms: _403  and  _406
REMARK  166  A    between atoms: _406  and  _407
REMARK  167  A    between atoms: _407  and  _408
REMARK  168  A    between atoms: _408  and  _409
REMARK  169  A    between atoms: _409  and  _410
REMARK  170  A    between atoms: _414  and  _416
REMARK  171  A    between atoms: _416  and  _417
REMARK  172  A    between atoms: _416  and  _419
REMARK  173  A    between atoms: _419  and  _420
REMARK  174  A    between atoms: _420  and  _421
REMARK  175  A    between atoms: _423  and  _425
REMARK  176  A    between atoms: _425  and  _426
REMARK  177  A    between atoms: _425  and  _428
REMARK  178  A    between atoms: _431  and  _433
REMARK  179  A    between atoms: _433  and  _434
REMARK  180  A    between atoms: _436  and  _438
REMARK  181  A    between atoms: _438  and  _439
REMARK  182  A    between atoms: _441  and  _443
REMARK  183  A    between atoms: _443  and  _444
REMARK  184  A    between atoms: _443  and  _446
REMARK  185  A    between atoms: _446  and  _447
REMARK  186  A    between atoms: _450  and  _452
REMARK  187  A    between atoms: _452  and  _453
REMARK  188  A    between atoms: _455  and  _457
REMARK  189  A    between atoms: _457  and  _458
REMARK  190  A    between atoms: _460  and  _462
REMARK  191  A    between atoms: _462  and  _463
REMARK  192  A    between atoms: _462  and  _465
REMARK  193  A    between atoms: _465  and  _466
REMARK  194  A    between atoms: _472  and  _474
REMARK  195  A    between atoms: _474  and  _475
REMARK  196  A    between atoms: _474  and  _477
REMARK  197  A    between atoms: _477  and  _478
REMARK  198  A    between atoms: _481  and  _483
REMARK  199  A    between atoms: _483  and  _484
REMARK  200  A    between atoms: _483  and  _486
REMARK  201  A    between atoms: _486  and  _487
REMARK  202  A    between atoms: _490  and  _492
REMARK  203  A    between atoms: _492  and  _493
REMARK  204  A    between atoms: _492  and  _495
REMARK  205  A    between atoms: _495  and  _496
REMARK  206  A    between atoms: _500  and  _501
REMARK  207  A    between atoms: _506  and  _508
REMARK  208  A    between atoms: _508  and  _509
REMARK  209  A    between atoms: _508  and  _511
REMARK  210  A    between atoms: _514  and  _516
REMARK  211  A    between atoms: _516  and  _517
REMARK  212  A    between atoms: _516  and  _519
REMARK  213  A    between atoms: _519  and  _520
REMARK  214  A    between atoms: _525  and  _527
REMARK  215  A    between atoms: _527  and  _528
REMARK  216  A    between atoms: _527  and  _530
REMARK  217  A    between atoms: _533  and  _535
REMARK  218  A    between atoms: _535  and  _536
REMARK  219  A    between atoms: _535  and  _538
REMARK  220  A    between atoms: _538  and  _539
REMARK  221  A    between atoms: _542  and  _544
REMARK  222  A    between atoms: _544  and  _545
REMARK  223  A    between atoms: _547  and  _549
REMARK  224  A    between atoms: _549  and  _550
REMARK  225  A    between atoms: _549  and  _552
REMARK  226  A    between atoms: _552  and  _553
REMARK  227  A    between atoms: _553  and  _554
REMARK  228  A    between atoms: _554  and  _555
REMARK  229  A    between atoms: _564  and  _566
REMARK  230  A    between atoms: _566  and  _567
REMARK  231  A    between atoms: _566  and  _569
REMARK  232  A    between atoms: _569  and  _570
REMARK                            x       y       z     vdW  Elec       q    Type
REMARK                         _______ _______ _______ _____ _____    ______ ____
ROOT
ATOM      1  O   HOH     1     -15.138 -18.738 -12.755  0.00  0.00    +0.000 OA
ENDROOT
TORSDOF 0
REMARK  Name = ../refined-set-2016/4ye3/4ye3_pocket.pdb
REMARK  232 active torsions:
REMARK  status: ('A' for Active; 'I' for Inactive)
REMARK    1  A    between atoms: _1  and  _3
REMARK    2  A    between atoms: _3  and  _4
REMARK    3  A    between atoms: _3  and  _6
REMARK    4  A    between atoms: _6  and  _7
REMARK    5  A    between atoms: _7  and  _8
REMARK    6  A    between atoms: _8  and  _9
REMARK    7  A    between atoms: _18  and  _20
REMARK    8  A    between atoms: _20  and  _21
REMARK    9  A    between atoms: _20  and  _23
REMARK   10  A    between atoms: _23  and  _24
REMARK   11  A    between atoms: _30  and  _32
REMARK   12  A    between atoms: _32  and  _33
REMARK   13  A    between atoms: _32  and  _35
REMARK   14  A    between atoms: _35  and  _36
REMARK   15  A    between atoms: _39  and  _41
REMARK   16  A    between atoms: _41  and  _42
REMARK   17  A    between atoms: _41  and  _44
REMARK   18  A    between atoms: _44  and  _45
REMARK   19  A    between atoms: _48  and  _50
REMARK   20  A    between atoms: _50  and  _51
REMARK   21  A    between atoms: _50  and  _53
REMARK   22  A    between atoms: _53  and  _54
REMARK   23  A    between atoms: _57  and  _59
REMARK   24  A    between atoms: _59  and  _60
REMARK   25  A    between atoms: _59  and  _62
REMARK   26  A    between atoms: _62  and  _63
REMARK   27  A    between atoms: _66  and  _68
REMARK   28  A    between atoms: _68  and  _69
REMARK   29  A    between atoms: _71  and  _73
REMARK   30  A    between atoms: _73  and  _74
REMARK   31  A    between atoms: _77  and  _79
REMARK   32  A    between atoms: _79  and  _80
REMARK   33  A    between atoms: _79  and  _82
REMARK   34  A    between atoms: _82  and  _83
REMARK   35  A    between atoms: _86  and  _88
REMARK   36  A    between atoms: _88  and  _89
REMARK   37  A    between atoms: _88  and  _91
REMARK   38  A    between atoms: _91  and  _92
REMARK   39  A    between atoms: _97  and  _99
REMARK   40  A    between atoms: _99  and  _100
REMARK   41  A    between atoms: _99  and  _102
REMARK   42  A    between atoms: _102  and  _103
REMARK   43  A    between atoms: _106  and  _108
REMARK   44  A    between atoms: _108  and  _109
REMARK   45  A    between atoms: _108  and  _111
REMARK   46  A    between atoms: _111  and  _112
REMARK   47  A    between atoms: _115  and  _117
REMARK   48  A    between atoms: _117  and  _118
REMARK   49  A    between atoms: _117  and  _120
REMARK   50  A    between atoms: _120  and  _121
REMARK   51  A    between atoms: _121  and  _122
REMARK   52  A    between atoms: _122  and  _123
REMARK   53  A    between atoms: _123  and  _124
REMARK   54  A    between atoms: _128  and  _130
REMARK   55  A    between atoms: _130  and  _131
REMARK   56  A    between atoms: _130  and  _133
REMARK   57  A    between atoms: _133  and  _134
REMARK   58  A    between atoms: _134  and  _135
REMARK   59  A    between atoms: _137  and  _139
REMARK   60  A    between atoms: _139  and  _140
REMARK   61  A    between atoms: _139  and  _142
REMARK   62  A    between atoms: _145  and  _147
REMARK   63  A    between atoms: _147  and  _148
REMARK   64  A    between atoms: _150  and  _152
REMARK   65  A    between atoms: _152  and  _153
REMARK   66  A    between atoms: _155  and  _157
REMARK   67  A    between atoms: _157  and  _158
REMARK   68  A    between atoms: _157  and  _160
REMARK   69  A    between atoms: _160  and  _161
REMARK   70  A    between atoms: _164  and  _166
REMARK   71  A    between atoms: _166  and  _167
REMARK   72  A    between atoms: _169  and  _171
REMARK   73  A    between atoms: _171  and  _172
REMARK   74  A    between atoms: _174  and  _176
REMARK   75  A    between atoms: _176  and  _177
REMARK   76  A    between atoms: _176  and  _179
REMARK   77  A    between atoms: _179  and  _180
REMARK   78  A    between atoms: _186  and  _188
REMARK   79  A    between atoms: _188  and  _189
REMARK   80  A    between atoms: _188  and  _191
REMARK   81  A    between atoms: _191  and  _192
REMARK   82  A    between atoms: _195  and  _197
REMARK   83  A    between atoms: _197  and  _198
REMARK   84  A    between atoms: _197  and  _200
REMARK   85  A    between atoms: _200  and  _201
REMARK   86  A    between atoms: _204  and  _206
REMARK   87  A    between atoms: _206  and  _207
REMARK   88  A    between atoms: _206  and  _209
REMARK   89  A    between atoms: _209  and  _210
REMARK   90  A    between atoms: _214  and  _215
REMARK   91  A    between atoms: _220  and  _222
REMARK   92  A    between atoms: _222  and  _223
REMARK   93  A    between atoms: _222  and  _225
REMARK   94  A    between atoms: _228  and  _230
REMARK   95  A    between atoms: _230  and  _231
REMARK   96  A    between atoms: _230  and  _233
REMARK   97  A    between atoms: _233  and  _234
REMARK   98  A    between atoms: _239  and  _241
REMARK   99  A    between atoms: _241  and  _242
REMARK  100  A    between atoms: _241  and  _244
REMARK  101  A    between atoms: _247  and  _249
REMARK  102  A    between atoms: _249  and  _250
REMARK  103  A    between atoms: _249  and  _252
REMARK  104  A    between atoms: _252  and  _253
REMARK  105  A    between atoms: _256  and  _258
REMARK  106  A    between atoms: _258  and  _259
REMARK  107  A    between atoms: _261  and  _263
REMARK  108  A    between atoms: _263  and  _264
REMARK  109  A    between atoms: _263  and  _266
REMARK  110  A    between atoms: _266  and  _267
REMARK  111  A    between atoms: _267  and  _268
REMARK  112  A    between atoms: _268  and  _269
REMARK  113  A    between atoms: _278  and  _280
REMARK  114  A    between atoms: _280  and  _281
REMARK  115  A    between atoms: _280  and  _283
REMARK  116  A    between atoms: _283  and  _284
REMARK  117  A    between atoms: _287  and  _289
REMARK  118  A    between atoms: _289  and  _290
REMARK  119  A    between atoms: _289  and  _292
REMARK  120  A    between atoms: _292  and  _293
REMARK  121  A    between atoms: _293  and  _294
REMARK  122  A    between atoms: _294  and  _295
REMARK  123  A    between atoms: _304  and  _306
REMARK  124  A    between atoms: _306  and  _307
REMARK  125  A    between atoms: _306  and  _309
REMARK  126  A    between atoms: _309  and  _310
REMARK  127  A    between atoms: _316  and  _318
REMARK  128  A    between atoms: _318  and  _319
REMARK  129  A    between atoms: _318  and  _321
REMARK  130  A    between atoms: _321  and  _322
REMARK  131  A    between atoms: _325  and  _327
REMARK  132  A    between atoms: _327  and  _328
REMARK  133  A    between atoms: _327  and  _330
REMARK  134  A    between atoms: _330  and  _331
REMARK  135  A    between atoms: _334  and  _336
REMARK  136  A    between atoms: _336  and  _337
REMARK  137  A    between atoms: _336  and  _339
REMARK  138  A    between atoms: _339  and  _340
REMARK  139  A    between atoms: _343  and  _345
REMARK  140  A    between atoms: _345  and  _346
REMARK  141  A    between atoms: _345  and  _348
REMARK  142  A    between atoms: _348  and  _349
REMARK  143  A    between atoms: _352  and  _354
REMARK  144  A    between atoms: _354  and  _355
REMARK  145  A    between atoms: _357  and  _359
REMARK  146  A    between atoms: _359  and  _360
REMARK  147  A    between atoms: _363  and  _365
REMARK  148  A    between atoms: _365  and  _366
REMARK  149  A    between atoms: _365  and  _368
REMARK  150  A    between atoms: _368  and  _369
REMARK  151  A    between atoms: _372  and  _374
REMARK  152  A    between atoms: _374  and  _375
REMARK  153  A    between atoms: _374  and  _377
REMARK  154  A    between atoms: _377  and  _378
REMARK  155  A    between atoms: _383  and  _385
REMARK  156  A    between atoms: _385  and  _386
REMARK  157  A    between atoms: _385  and  _388
REMARK  158  A    between atoms: _388  and  _389
REMARK  159  A    between atoms: _392  and  _394
REMARK  160  A    between atoms: _394  and  _395
REMARK  161  A    between atoms: _394  and  _397
REMARK  162  A    between atoms: _397  and  _398
REMARK  163  A    between atoms: _401  and  _403
REMARK  164  A    between atoms: _403  and  _404
REMARK  165  A    between atoms: _403  and  _406
REMARK  166  A    between atoms: _406  and  _407
REMARK  167  A    between atoms: _407  and  _408
REMARK  168  A    between atoms: _408  and  _409
REMARK  169  A    between atoms: _409  and  _410
REMARK  170  A    between atoms: _414  and  _416
REMARK  171  A    between atoms: _416  and  _417
REMARK  172  A    between atoms: _416  and  _419
REMARK  173  A    between atoms: _419  and  _420
REMARK  174  A    between atoms: _420  and  _421
REMARK  175  A    between atoms: _423  and  _425
REMARK  176  A    between atoms: _425  and  _426
REMARK  177  A    between atoms: _425  and  _428
REMARK  178  A    between atoms: _431  and  _433
REMARK  179  A    between atoms: _433  and  _434
REMARK  180  A    between atoms: _436  and  _438
REMARK  181  A    between atoms: _438  and  _439
REMARK  182  A    between atoms: _441  and  _443
REMARK  183  A    between atoms: _443  and  _444
REMARK  184  A    between atoms: _443  and  _446
REMARK  185  A    between atoms: _446  and  _447
REMARK  186  A    between atoms: _450  and  _452
REMARK  187  A    between atoms: _452  and  _453
REMARK  188  A    between atoms: _455  and  _457
REMARK  189  A    between atoms: _457  and  _458
REMARK  190  A    between atoms: _460  and  _462
REMARK  191  A    between atoms: _462  and  _463
REMARK  192  A    between atoms: _462  and  _465
REMARK  193  A    between atoms: _465  and  _466
REMARK  194  A    between atoms: _472  and  _474
REMARK  195  A    between atoms: _474  and  _475
REMARK  196  A    between atoms: _474  and  _477
REMARK  197  A    between atoms: _477  and  _478
REMARK  198  A    between atoms: _481  and  _483
REMARK  199  A    between atoms: _483  and  _484
REMARK  200  A    between atoms: _483  and  _486
REMARK  201  A    between atoms: _486  and  _487
REMARK  202  A    between atoms: _490  and  _492
REMARK  203  A    between atoms: _492  and  _493
REMARK  204  A    between atoms: _492  and  _495
REMARK  205  A    between atoms: _495  and  _496
REMARK  206  A    between atoms: _500  and  _501
REMARK  207  A    between atoms: _506  and  _508
REMARK  208  A    between atoms: _508  and  _509
REMARK  209  A    between atoms: _508  and  _511
REMARK  210  A    between atoms: _514  and  _516
REMARK  211  A    between atoms: _516  and  _517
REMARK  212  A    between atoms: _516  and  _519
REMARK  213  A    between atoms: _519  and  _520
REMARK  214  A    between atoms: _525  and  _527
REMARK  215  A    between atoms: _527  and  _528
REMARK  216  A    between atoms: _527  and  _530
REMARK  217  A    between atoms: _533  and  _535
REMARK  218  A    between atoms: _535  and  _536
REMARK  219  A    between atoms: _535  and  _538
REMARK  220  A    between atoms: _538  and  _539
REMARK  221  A    between atoms: _542  and  _544
REMARK  222  A    between atoms: _544  and  _545
REMARK  223  A    between atoms: _547  and  _549
REMARK  224  A    between atoms: _549  and  _550
REMARK  225  A    between atoms: _549  and  _552
REMARK  226  A    between atoms: _552  and  _553
REMARK  227  A    between atoms: _553  and  _554
REMARK  228  A    between atoms: _554  and  _555
REMARK  229  A    between atoms: _564  and  _566
REMARK  230  A    between atoms: _566  and  _567
REMARK  231  A    between atoms: _566  and  _569
REMARK  232  A    between atoms: _569  and  _570
REMARK                            x       y       z     vdW  Elec       q    Type
REMARK                         _______ _______ _______ _____ _____    ______ ____
ROOT
ATOM      1  O   HOH     1      -8.718 -22.553   9.796  0.00  0.00    +0.000 OA
ENDROOT
TORSDOF 0
REMARK  Name = ../refined-set-2016/4ye3/4ye3_pocket.pdb
REMARK  232 active torsions:
REMARK  status: ('A' for Active; 'I' for Inactive)
REMARK    1  A    between atoms: _1  and  _3
REMARK    2  A    between atoms: _3  and  _4
REMARK    3  A    between atoms: _3  and  _6
REMARK    4  A    between atoms: _6  and  _7
REMARK    5  A    between atoms: _7  and  _8
REMARK    6  A    between atoms: _8  and  _9
REMARK    7  A    between atoms: _18  and  _20
REMARK    8  A    between atoms: _20  and  _21
REMARK    9  A    between atoms: _20  and  _23
REMARK   10  A    between atoms: _23  and  _24
REMARK   11  A    between atoms: _30  and  _32
REMARK   12  A    between atoms: _32  and  _33
REMARK   13  A    between atoms: _32  and  _35
REMARK   14  A    between atoms: _35  and  _36
REMARK   15  A    between atoms: _39  and  _41
REMARK   16  A    between atoms: _41  and  _42
REMARK   17  A    between atoms: _41  and  _44
REMARK   18  A    between atoms: _44  and  _45
REMARK   19  A    between atoms: _48  and  _50
REMARK   20  A    between atoms: _50  and  _51
REMARK   21  A    between atoms: _50  and  _53
REMARK   22  A    between atoms: _53  and  _54
REMARK   23  A    between atoms: _57  and  _59
REMARK   24  A    between atoms: _59  and  _60
REMARK   25  A    between atoms: _59  and  _62
REMARK   26  A    between atoms: _62  and  _63
REMARK   27  A    between atoms: _66  and  _68
REMARK   28  A    between atoms: _68  and  _69
REMARK   29  A    between atoms: _71  and  _73
REMARK   30  A    between atoms: _73  and  _74
REMARK   31  A    between atoms: _77  and  _79
REMARK   32  A    between atoms: _79  and  _80
REMARK   33  A    between atoms: _79  and  _82
REMARK   34  A    between atoms: _82  and  _83
REMARK   35  A    between atoms: _86  and  _88
REMARK   36  A    between atoms: _88  and  _89
REMARK   37  A    between atoms: _88  and  _91
REMARK   38  A    between atoms: _91  and  _92
REMARK   39  A    between atoms: _97  and  _99
REMARK   40  A    between atoms: _99  and  _100
REMARK   41  A    between atoms: _99  and  _102
REMARK   42  A    between atoms: _102  and  _103
REMARK   43  A    between atoms: _106  and  _108
REMARK   44  A    between atoms: _108  and  _109
REMARK   45  A    between atoms: _108  and  _111
REMARK   46  A    between atoms: _111  and  _112
REMARK   47  A    between atoms: _115  and  _117
REMARK   48  A    between atoms: _117  and  _118
REMARK   49  A    between atoms: _117  and  _120
REMARK   50  A    between atoms: _120  and  _121
REMARK   51  A    between atoms: _121  and  _122
REMARK   52  A    between atoms: _122  and  _123
REMARK   53  A    between atoms: _123  and  _124
REMARK   54  A    between atoms: _128  and  _130
REMARK   55  A    between atoms: _130  and  _131
REMARK   56  A    between atoms: _130  and  _133
REMARK   57  A    between atoms: _133  and  _134
REMARK   58  A    between atoms: _134  and  _135
REMARK   59  A    between atoms: _137  and  _139
REMARK   60  A    between atoms: _139  and  _140
REMARK   61  A    between atoms: _139  and  _142
REMARK   62  A    between atoms: _145  and  _147
REMARK   63  A    between atoms: _147  and  _148
REMARK   64  A    between atoms: _150  and  _152
REMARK   65  A    between atoms: _152  and  _153
REMARK   66  A    between atoms: _155  and  _157
REMARK   67  A    between atoms: _157  and  _158
REMARK   68  A    between atoms: _157  and  _160
REMARK   69  A    between atoms: _160  and  _161
REMARK   70  A    between atoms: _164  and  _166
REMARK   71  A    between atoms: _166  and  _167
REMARK   72  A    between atoms: _169  and  _171
REMARK   73  A    between atoms: _171  and  _172
REMARK   74  A    between atoms: _174  and  _176
REMARK   75  A    between atoms: _176  and  _177
REMARK   76  A    between atoms: _176  and  _179
REMARK   77  A    between atoms: _179  and  _180
REMARK   78  A    between atoms: _186  and  _188
REMARK   79  A    between atoms: _188  and  _189
REMARK   80  A    between atoms: _188  and  _191
REMARK   81  A    between atoms: _191  and  _192
REMARK   82  A    between atoms: _195  and  _197
REMARK   83  A    between atoms: _197  and  _198
REMARK   84  A    between atoms: _197  and  _200
REMARK   85  A    between atoms: _200  and  _201
REMARK   86  A    between atoms: _204  and  _206
REMARK   87  A    between atoms: _206  and  _207
REMARK   88  A    between atoms: _206  and  _209
REMARK   89  A    between atoms: _209  and  _210
REMARK   90  A    between atoms: _214  and  _215
REMARK   91  A    between atoms: _220  and  _222
REMARK   92  A    between atoms: _222  and  _223
REMARK   93  A    between atoms: _222  and  _225
REMARK   94  A    between atoms: _228  and  _230
REMARK   95  A    between atoms: _230  and  _231
REMARK   96  A    between atoms: _230  and  _233
REMARK   97  A    between atoms: _233  and  _234
REMARK   98  A    between atoms: _239  and  _241
REMARK   99  A    between atoms: _241  and  _242
REMARK  100  A    between atoms: _241  and  _244
REMARK  101  A    between atoms: _247  and  _249
REMARK  102  A    between atoms: _249  and  _250
REMARK  103  A    between atoms: _249  and  _252
REMARK  104  A    between atoms: _252  and  _253
REMARK  105  A    between atoms: _256  and  _258
REMARK  106  A    between atoms: _258  and  _259
REMARK  107  A    between atoms: _261  and  _263
REMARK  108  A    between atoms: _263  and  _264
REMARK  109  A    between atoms: _263  and  _266
REMARK  110  A    between atoms: _266  and  _267
REMARK  111  A    between atoms: _267  and  _268
REMARK  112  A    between atoms: _268  and  _269
REMARK  113  A    between atoms: _278  and  _280
REMARK  114  A    between atoms: _280  and  _281
REMARK  115  A    between atoms: _280  and  _283
REMARK  116  A    between atoms: _283  and  _284
REMARK  117  A    between atoms: _287  and  _289
REMARK  118  A    between atoms: _289  and  _290
REMARK  119  A    between atoms: _289  and  _292
REMARK  120  A    between atoms: _292  and  _293
REMARK  121  A    between atoms: _293  and  _294
REMARK  122  A    between atoms: _294  and  _295
REMARK  123  A    between atoms: _304  and  _306
REMARK  124  A    between atoms: _306  and  _307
REMARK  125  A    between atoms: _306  and  _309
REMARK  126  A    between atoms: _309  and  _310
REMARK  127  A    between atoms: _316  and  _318
REMARK  128  A    between atoms: _318  and  _319
REMARK  129  A    between atoms: _318  and  _321
REMARK  130  A    between atoms: _321  and  _322
REMARK  131  A    between atoms: _325  and  _327
REMARK  132  A    between atoms: _327  and  _328
REMARK  133  A    between atoms: _327  and  _330
REMARK  134  A    between atoms: _330  and  _331
REMARK  135  A    between atoms: _334  and  _336
REMARK  136  A    between atoms: _336  and  _337
REMARK  137  A    between atoms: _336  and  _339
REMARK  138  A    between atoms: _339  and  _340
REMARK  139  A    between atoms: _343  and  _345
REMARK  140  A    between atoms: _345  and  _346
REMARK  141  A    between atoms: _345  and  _348
REMARK  142  A    between atoms: _348  and  _349
REMARK  143  A    between atoms: _352  and  _354
REMARK  144  A    between atoms: _354  and  _355
REMARK  145  A    between atoms: _357  and  _359
REMARK  146  A    between atoms: _359  and  _360
REMARK  147  A    between atoms: _363  and  _365
REMARK  148  A    between atoms: _365  and  _366
REMARK  149  A    between atoms: _365  and  _368
REMARK  150  A    between atoms: _368  and  _369
REMARK  151  A    between atoms: _372  and  _374
REMARK  152  A    between atoms: _374  and  _375
REMARK  153  A    between atoms: _374  and  _377
REMARK  154  A    between atoms: _377  and  _378
REMARK  155  A    between atoms: _383  and  _385
REMARK  156  A    between atoms: _385  and  _386
REMARK  157  A    between atoms: _385  and  _388
REMARK  158  A    between atoms: _388  and  _389
REMARK  159  A    between atoms: _392  and  _394
REMARK  160  A    between atoms: _394  and  _395
REMARK  161  A    between atoms: _394  and  _397
REMARK  162  A    between atoms: _397  and  _398
REMARK  163  A    between atoms: _401  and  _403
REMARK  164  A    between atoms: _403  and  _404
REMARK  165  A    between atoms: _403  and  _406
REMARK  166  A    between atoms: _406  and  _407
REMARK  167  A    between atoms: _407  and  _408
REMARK  168  A    between atoms: _408  and  _409
REMARK  169  A    between atoms: _409  and  _410
REMARK  170  A    between atoms: _414  and  _416
REMARK  171  A    between atoms: _416  and  _417
REMARK  172  A    between atoms: _416  and  _419
REMARK  173  A    between atoms: _419  and  _420
REMARK  174  A    between atoms: _420  and  _421
REMARK  175  A    between atoms: _423  and  _425
REMARK  176  A    between atoms: _425  and  _426
REMARK  177  A    between atoms: _425  and  _428
REMARK  178  A    between atoms: _431  and  _433
REMARK  179  A    between atoms: _433  and  _434
REMARK  180  A    between atoms: _436  and  _438
REMARK  181  A    between atoms: _438  and  _439
REMARK  182  A    between atoms: _441  and  _443
REMARK  183  A    between atoms: _443  and  _444
REMARK  184  A    between atoms: _443  and  _446
REMARK  185  A    between atoms: _446  and  _447
REMARK  186  A    between atoms: _450  and  _452
REMARK  187  A    between atoms: _452  and  _453
REMARK  188  A    between atoms: _455  and  _457
REMARK  189  A    between atoms: _457  and  _458
REMARK  190  A    between atoms: _460  and  _462
REMARK  191  A    between atoms: _462  and  _463
REMARK  192  A    between atoms: _462  and  _465
REMARK  193  A    between atoms: _465  and  _466
REMARK  194  A    between atoms: _472  and  _474
REMARK  195  A    between atoms: _474  and  _475
REMARK  196  A    between atoms: _474  and  _477
REMARK  197  A    between atoms: _477  and  _478
REMARK  198  A    between atoms: _481  and  _483
REMARK  199  A    between atoms: _483  and  _484
REMARK  200  A    between atoms: _483  and  _486
REMARK  201  A    between atoms: _486  and  _487
REMARK  202  A    between atoms: _490  and  _492
REMARK  203  A    between atoms: _492  and  _493
REMARK  204  A    between atoms: _492  and  _495
REMARK  205  A    between atoms: _495  and  _496
REMARK  206  A    between atoms: _500  and  _501
REMARK  207  A    between atoms: _506  and  _508
REMARK  208  A    between atoms: _508  and  _509
REMARK  209  A    between atoms: _508  and  _511
REMARK  210  A    between atoms: _514  and  _516
REMARK  211  A    between atoms: _516  and  _517
REMARK  212  A    between atoms: _516  and  _519
REMARK  213  A    between atoms: _519  and  _520
REMARK  214  A    between atoms: _525  and  _527
REMARK  215  A    between atoms: _527  and  _528
REMARK  216  A    between atoms: _527  and  _530
REMARK  217  A    between atoms: _533  and  _535
REMARK  218  A    between atoms: _535  and  _536
REMARK  219  A    between atoms: _535  and  _538
REMARK  220  A    between atoms: _538  and  _539
REMARK  221  A    between atoms: _542  and  _544
REMARK  222  A    between atoms: _544  and  _545
REMARK  223  A    between atoms: _547  and  _549
REMARK  224  A    between atoms: _549  and  _550
REMARK  225  A    between atoms: _549  and  _552
REMARK  226  A    between atoms: _552  and  _553
REMARK  227  A    between atoms: _553  and  _554
REMARK  228  A    between atoms: _554  and  _555
REMARK  229  A    between atoms: _564  and  _566
REMARK  230  A    between atoms: _566  and  _567
REMARK  231  A    between atoms: _566  and  _569
REMARK  232  A    between atoms: _569  and  _570
REMARK                            x       y       z     vdW  Elec       q    Type
REMARK                         _______ _______ _______ _____ _____    ______ ____
ROOT
ATOM      1  O   HOH     1       2.391 -19.271  -4.928  0.00  0.00    +0.000 OA
ENDROOT
TORSDOF 0
REMARK  Name = ../refined-set-2016/4ye3/4ye3_pocket.pdb
REMARK  232 active torsions:
REMARK  status: ('A' for Active; 'I' for Inactive)
REMARK    1  A    between atoms: _1  and  _3
REMARK    2  A    between atoms: _3  and  _4
REMARK    3  A    between atoms: _3  and  _6
REMARK    4  A    between atoms: _6  and  _7
REMARK    5  A    between atoms: _7  and  _8
REMARK    6  A    between atoms: _8  and  _9
REMARK    7  A    between atoms: _18  and  _20
REMARK    8  A    between atoms: _20  and  _21
REMARK    9  A    between atoms: _20  and  _23
REMARK   10  A    between atoms: _23  and  _24
REMARK   11  A    between atoms: _30  and  _32
REMARK   12  A    between atoms: _32  and  _33
REMARK   13  A    between atoms: _32  and  _35
REMARK   14  A    between atoms: _35  and  _36
REMARK   15  A    between atoms: _39  and  _41
REMARK   16  A    between atoms: _41  and  _42
REMARK   17  A    between atoms: _41  and  _44
REMARK   18  A    between atoms: _44  and  _45
REMARK   19  A    between atoms: _48  and  _50
REMARK   20  A    between atoms: _50  and  _51
REMARK   21  A    between atoms: _50  and  _53
REMARK   22  A    between atoms: _53  and  _54
REMARK   23  A    between atoms: _57  and  _59
REMARK   24  A    between atoms: _59  and  _60
REMARK   25  A    between atoms: _59  and  _62
REMARK   26  A    between atoms: _62  and  _63
REMARK   27  A    between atoms: _66  and  _68
REMARK   28  A    between atoms: _68  and  _69
REMARK   29  A    between atoms: _71  and  _73
REMARK   30  A    between atoms: _73  and  _74
REMARK   31  A    between atoms: _77  and  _79
REMARK   32  A    between atoms: _79  and  _80
REMARK   33  A    between atoms: _79  and  _82
REMARK   34  A    between atoms: _82  and  _83
REMARK   35  A    between atoms: _86  and  _88
REMARK   36  A    between atoms: _88  and  _89
REMARK   37  A    between atoms: _88  and  _91
REMARK   38  A    between atoms: _91  and  _92
REMARK   39  A    between atoms: _97  and  _99
REMARK   40  A    between atoms: _99  and  _100
REMARK   41  A    between atoms: _99  and  _102
REMARK   42  A    between atoms: _102  and  _103
REMARK   43  A    between atoms: _106  and  _108
REMARK   44  A    between atoms: _108  and  _109
REMARK   45  A    between atoms: _108  and  _111
REMARK   46  A    between atoms: _111  and  _112
REMARK   47  A    between atoms: _115  and  _117
REMARK   48  A    between atoms: _117  and  _118
REMARK   49  A    between atoms: _117  and  _120
REMARK   50  A    between atoms: _120  and  _121
REMARK   51  A    between atoms: _121  and  _122
REMARK   52  A    between atoms: _122  and  _123
REMARK   53  A    between atoms: _123  and  _124
REMARK   54  A    between atoms: _128  and  _130
REMARK   55  A    between atoms: _130  and  _131
REMARK   56  A    between atoms: _130  and  _133
REMARK   57  A    between atoms: _133  and  _134
REMARK   58  A    between atoms: _134  and  _135
REMARK   59  A    between atoms: _137  and  _139
REMARK   60  A    between atoms: _139  and  _140
REMARK   61  A    between atoms: _139  and  _142
REMARK   62  A    between atoms: _145  and  _147
REMARK   63  A    between atoms: _147  and  _148
REMARK   64  A    between atoms: _150  and  _152
REMARK   65  A    between atoms: _152  and  _153
REMARK   66  A    between atoms: _155  and  _157
REMARK   67  A    between atoms: _157  and  _158
REMARK   68  A    between atoms: _157  and  _160
REMARK   69  A    between atoms: _160  and  _161
REMARK   70  A    between atoms: _164  and  _166
REMARK   71  A    between atoms: _166  and  _167
REMARK   72  A    between atoms: _169  and  _171
REMARK   73  A    between atoms: _171  and  _172
REMARK   74  A    between atoms: _174  and  _176
REMARK   75  A    between atoms: _176  and  _177
REMARK   76  A    between atoms: _176  and  _179
REMARK   77  A    between atoms: _179  and  _180
REMARK   78  A    between atoms: _186  and  _188
REMARK   79  A    between atoms: _188  and  _189
REMARK   80  A    between atoms: _188  and  _191
REMARK   81  A    between atoms: _191  and  _192
REMARK   82  A    between atoms: _195  and  _197
REMARK   83  A    between atoms: _197  and  _198
REMARK   84  A    between atoms: _197  and  _200
REMARK   85  A    between atoms: _200  and  _201
REMARK   86  A    between atoms: _204  and  _206
REMARK   87  A    between atoms: _206  and  _207
REMARK   88  A    between atoms: _206  and  _209
REMARK   89  A    between atoms: _209  and  _210
REMARK   90  A    between atoms: _214  and  _215
REMARK   91  A    between atoms: _220  and  _222
REMARK   92  A    between atoms: _222  and  _223
REMARK   93  A    between atoms: _222  and  _225
REMARK   94  A    between atoms: _228  and  _230
REMARK   95  A    between atoms: _230  and  _231
REMARK   96  A    between atoms: _230  and  _233
REMARK   97  A    between atoms: _233  and  _234
REMARK   98  A    between atoms: _239  and  _241
REMARK   99  A    between atoms: _241  and  _242
REMARK  100  A    between atoms: _241  and  _244
REMARK  101  A    between atoms: _247  and  _249
REMARK  102  A    between atoms: _249  and  _250
REMARK  103  A    between atoms: _249  and  _252
REMARK  104  A    between atoms: _252  and  _253
REMARK  105  A    between atoms: _256  and  _258
REMARK  106  A    between atoms: _258  and  _259
REMARK  107  A    between atoms: _261  and  _263
REMARK  108  A    between atoms: _263  and  _264
REMARK  109  A    between atoms: _263  and  _266
REMARK  110  A    between atoms: _266  and  _267
REMARK  111  A    between atoms: _267  and  _268
REMARK  112  A    between atoms: _268  and  _269
REMARK  113  A    between atoms: _278  and  _280
REMARK  114  A    between atoms: _280  and  _281
REMARK  115  A    between atoms: _280  and  _283
REMARK  116  A    between atoms: _283  and  _284
REMARK  117  A    between atoms: _287  and  _289
REMARK  118  A    between atoms: _289  and  _290
REMARK  119  A    between atoms: _289  and  _292
REMARK  120  A    between atoms: _292  and  _293
REMARK  121  A    between atoms: _293  and  _294
REMARK  122  A    between atoms: _294  and  _295
REMARK  123  A    between atoms: _304  and  _306
REMARK  124  A    between atoms: _306  and  _307
REMARK  125  A    between atoms: _306  and  _309
REMARK  126  A    between atoms: _309  and  _310
REMARK  127  A    between atoms: _316  and  _318
REMARK  128  A    between atoms: _318  and  _319
REMARK  129  A    between atoms: _318  and  _321
REMARK  130  A    between atoms: _321  and  _322
REMARK  131  A    between atoms: _325  and  _327
REMARK  132  A    between atoms: _327  and  _328
REMARK  133  A    between atoms: _327  and  _330
REMARK  134  A    between atoms: _330  and  _331
REMARK  135  A    between atoms: _334  and  _336
REMARK  136  A    between atoms: _336  and  _337
REMARK  137  A    between atoms: _336  and  _339
REMARK  138  A    between atoms: _339  and  _340
REMARK  139  A    between atoms: _343  and  _345
REMARK  140  A    between atoms: _345  and  _346
REMARK  141  A    between atoms: _345  and  _348
REMARK  142  A    between atoms: _348  and  _349
REMARK  143  A    between atoms: _352  and  _354
REMARK  144  A    between atoms: _354  and  _355
REMARK  145  A    between atoms: _357  and  _359
REMARK  146  A    between atoms: _359  and  _360
REMARK  147  A    between atoms: _363  and  _365
REMARK  148  A    between atoms: _365  and  _366
REMARK  149  A    between atoms: _365  and  _368
REMARK  150  A    between atoms: _368  and  _369
REMARK  151  A    between atoms: _372  and  _374
REMARK  152  A    between atoms: _374  and  _375
REMARK  153  A    between atoms: _374  and  _377
REMARK  154  A    between atoms: _377  and  _378
REMARK  155  A    between atoms: _383  and  _385
REMARK  156  A    between atoms: _385  and  _386
REMARK  157  A    between atoms: _385  and  _388
REMARK  158  A    between atoms: _388  and  _389
REMARK  159  A    between atoms: _392  and  _394
REMARK  160  A    between atoms: _394  and  _395
REMARK  161  A    between atoms: _394  and  _397
REMARK  162  A    between atoms: _397  and  _398
REMARK  163  A    between atoms: _401  and  _403
REMARK  164  A    between atoms: _403  and  _404
REMARK  165  A    between atoms: _403  and  _406
REMARK  166  A    between atoms: _406  and  _407
REMARK  167  A    between atoms: _407  and  _408
REMARK  168  A    between atoms: _408  and  _409
REMARK  169  A    between atoms: _409  and  _410
REMARK  170  A    between atoms: _414  and  _416
REMARK  171  A    between atoms: _416  and  _417
REMARK  172  A    between atoms: _416  and  _419
REMARK  173  A    between atoms: _419  and  _420
REMARK  174  A    between atoms: _420  and  _421
REMARK  175  A    between atoms: _423  and  _425
REMARK  176  A    between atoms: _425  and  _426
REMARK  177  A    between atoms: _425  and  _428
REMARK  178  A    between atoms: _431  and  _433
REMARK  179  A    between atoms: _433  and  _434
REMARK  180  A    between atoms: _436  and  _438
REMARK  181  A    between atoms: _438  and  _439
REMARK  182  A    between atoms: _441  and  _443
REMARK  183  A    between atoms: _443  and  _444
REMARK  184  A    between atoms: _443  and  _446
REMARK  185  A    between atoms: _446  and  _447
REMARK  186  A    between atoms: _450  and  _452
REMARK  187  A    between atoms: _452  and  _453
REMARK  188  A    between atoms: _455  and  _457
REMARK  189  A    between atoms: _457  and  _458
REMARK  190  A    between atoms: _460  and  _462
REMARK  191  A    between atoms: _462  and  _463
REMARK  192  A    between atoms: _462  and  _465
REMARK  193  A    between atoms: _465  and  _466
REMARK  194  A    between atoms: _472  and  _474
REMARK  195  A    between atoms: _474  and  _475
REMARK  196  A    between atoms: _474  and  _477
REMARK  197  A    between atoms: _477  and  _478
REMARK  198  A    between atoms: _481  and  _483
REMARK  199  A    between atoms: _483  and  _484
REMARK  200  A    between atoms: _483  and  _486
REMARK  201  A    between atoms: _486  and  _487
REMARK  202  A    between atoms: _490  and  _492
REMARK  203  A    between atoms: _492  and  _493
REMARK  204  A    between atoms: _492  and  _495
REMARK  205  A    between atoms: _495  and  _496
REMARK  206  A    between atoms: _500  and  _501
REMARK  207  A    between atoms: _506  and  _508
REMARK  208  A    between atoms: _508  and  _509
REMARK  209  A    between atoms: _508  and  _511
REMARK  210  A    between atoms: _514  and  _516
REMARK  211  A    between atoms: _516  and  _517
REMARK  212  A    between atoms: _516  and  _519
REMARK  213  A    between atoms: _519  and  _520
REMARK  214  A    between atoms: _525  and  _527
REMARK  215  A    between atoms: _527  and  _528
REMARK  216  A    between atoms: _527  and  _530
REMARK  217  A    between atoms: _533  and  _535
REMARK  218  A    between atoms: _535  and  _536
REMARK  219  A    between atoms: _535  and  _538
REMARK  220  A    between atoms: _538  and  _539
REMARK  221  A    between atoms: _542  and  _544
REMARK  222  A    between atoms: _544  and  _545
REMARK  223  A    between atoms: _547  and  _549
REMARK  224  A    between atoms: _549  and  _550
REMARK  225  A    between atoms: _549  and  _552
REMARK  226  A    between atoms: _552  and  _553
REMARK  227  A    between atoms: _553  and  _554
REMARK  228  A    between atoms: _554  and  _555
REMARK  229  A    between atoms: _564  and  _566
REMARK  230  A    between atoms: _566  and  _567
REMARK  231  A    between atoms: _566  and  _569
REMARK  232  A    between atoms: _569  and  _570
REMARK                            x       y       z     vdW  Elec       q    Type
REMARK                         _______ _______ _______ _____ _____    ______ ____
ROOT
ATOM      1  O   HOH     1      -9.069 -16.085 -15.767  0.00  0.00    +0.000 OA
ENDROOT
TORSDOF 0
REMARK  Name = ../refined-set-2016/4ye3/4ye3_pocket.pdb
REMARK  232 active torsions:
REMARK  status: ('A' for Active; 'I' for Inactive)
REMARK    1  A    between atoms: _1  and  _3
REMARK    2  A    between atoms: _3  and  _4
REMARK    3  A    between atoms: _3  and  _6
REMARK    4  A    between atoms: _6  and  _7
REMARK    5  A    between atoms: _7  and  _8
REMARK    6  A    between atoms: _8  and  _9
REMARK    7  A    between atoms: _18  and  _20
REMARK    8  A    between atoms: _20  and  _21
REMARK    9  A    between atoms: _20  and  _23
REMARK   10  A    between atoms: _23  and  _24
REMARK   11  A    between atoms: _30  and  _32
REMARK   12  A    between atoms: _32  and  _33
REMARK   13  A    between atoms: _32  and  _35
REMARK   14  A    between atoms: _35  and  _36
REMARK   15  A    between atoms: _39  and  _41
REMARK   16  A    between atoms: _41  and  _42
REMARK   17  A    between atoms: _41  and  _44
REMARK   18  A    between atoms: _44  and  _45
REMARK   19  A    between atoms: _48  and  _50
REMARK   20  A    between atoms: _50  and  _51
REMARK   21  A    between atoms: _50  and  _53
REMARK   22  A    between atoms: _53  and  _54
REMARK   23  A    between atoms: _57  and  _59
REMARK   24  A    between atoms: _59  and  _60
REMARK   25  A    between atoms: _59  and  _62
REMARK   26  A    between atoms: _62  and  _63
REMARK   27  A    between atoms: _66  and  _68
REMARK   28  A    between atoms: _68  and  _69
REMARK   29  A    between atoms: _71  and  _73
REMARK   30  A    between atoms: _73  and  _74
REMARK   31  A    between atoms: _77  and  _79
REMARK   32  A    between atoms: _79  and  _80
REMARK   33  A    between atoms: _79  and  _82
REMARK   34  A    between atoms: _82  and  _83
REMARK   35  A    between atoms: _86  and  _88
REMARK   36  A    between atoms: _88  and  _89
REMARK   37  A    between atoms: _88  and  _91
REMARK   38  A    between atoms: _91  and  _92
REMARK   39  A    between atoms: _97  and  _99
REMARK   40  A    between atoms: _99  and  _100
REMARK   41  A    between atoms: _99  and  _102
REMARK   42  A    between atoms: _102  and  _103
REMARK   43  A    between atoms: _106  and  _108
REMARK   44  A    between atoms: _108  and  _109
REMARK   45  A    between atoms: _108  and  _111
REMARK   46  A    between atoms: _111  and  _112
REMARK   47  A    between atoms: _115  and  _117
REMARK   48  A    between atoms: _117  and  _118
REMARK   49  A    between atoms: _117  and  _120
REMARK   50  A    between atoms: _120  and  _121
REMARK   51  A    between atoms: _121  and  _122
REMARK   52  A    between atoms: _122  and  _123
REMARK   53  A    between atoms: _123  and  _124
REMARK   54  A    between atoms: _128  and  _130
REMARK   55  A    between atoms: _130  and  _131
REMARK   56  A    between atoms: _130  and  _133
REMARK   57  A    between atoms: _133  and  _134
REMARK   58  A    between atoms: _134  and  _135
REMARK   59  A    between atoms: _137  and  _139
REMARK   60  A    between atoms: _139  and  _140
REMARK   61  A    between atoms: _139  and  _142
REMARK   62  A    between atoms: _145  and  _147
REMARK   63  A    between atoms: _147  and  _148
REMARK   64  A    between atoms: _150  and  _152
REMARK   65  A    between atoms: _152  and  _153
REMARK   66  A    between atoms: _155  and  _157
REMARK   67  A    between atoms: _157  and  _158
REMARK   68  A    between atoms: _157  and  _160
REMARK   69  A    between atoms: _160  and  _161
REMARK   70  A    between atoms: _164  and  _166
REMARK   71  A    between atoms: _166  and  _167
REMARK   72  A    between atoms: _169  and  _171
REMARK   73  A    between atoms: _171  and  _172
REMARK   74  A    between atoms: _174  and  _176
REMARK   75  A    between atoms: _176  and  _177
REMARK   76  A    between atoms: _176  and  _179
REMARK   77  A    between atoms: _179  and  _180
REMARK   78  A    between atoms: _186  and  _188
REMARK   79  A    between atoms: _188  and  _189
REMARK   80  A    between atoms: _188  and  _191
REMARK   81  A    between atoms: _191  and  _192
REMARK   82  A    between atoms: _195  and  _197
REMARK   83  A    between atoms: _197  and  _198
REMARK   84  A    between atoms: _197  and  _200
REMARK   85  A    between atoms: _200  and  _201
REMARK   86  A    between atoms: _204  and  _206
REMARK   87  A    between atoms: _206  and  _207
REMARK   88  A    between atoms: _206  and  _209
REMARK   89  A    between atoms: _209  and  _210
REMARK   90  A    between atoms: _214  and  _215
REMARK   91  A    between atoms: _220  and  _222
REMARK   92  A    between atoms: _222  and  _223
REMARK   93  A    between atoms: _222  and  _225
REMARK   94  A    between atoms: _228  and  _230
REMARK   95  A    between atoms: _230  and  _231
REMARK   96  A    between atoms: _230  and  _233
REMARK   97  A    between atoms: _233  and  _234
REMARK   98  A    between atoms: _239  and  _241
REMARK   99  A    between atoms: _241  and  _242
REMARK  100  A    between atoms: _241  and  _244
REMARK  101  A    between atoms: _247  and  _249
REMARK  102  A    between atoms: _249  and  _250
REMARK  103  A    between atoms: _249  and  _252
REMARK  104  A    between atoms: _252  and  _253
REMARK  105  A    between atoms: _256  and  _258
REMARK  106  A    between atoms: _258  and  _259
REMARK  107  A    between atoms: _261  and  _263
REMARK  108  A    between atoms: _263  and  _264
REMARK  109  A    between atoms: _263  and  _266
REMARK  110  A    between atoms: _266  and  _267
REMARK  111  A    between atoms: _267  and  _268
REMARK  112  A    between atoms: _268  and  _269
REMARK  113  A    between atoms: _278  and  _280
REMARK  114  A    between atoms: _280  and  _281
REMARK  115  A    between atoms: _280  and  _283
REMARK  116  A    between atoms: _283  and  _284
REMARK  117  A    between atoms: _287  and  _289
REMARK  118  A    between atoms: _289  and  _290
REMARK  119  A    between atoms: _289  and  _292
REMARK  120  A    between atoms: _292  and  _293
REMARK  121  A    between atoms: _293  and  _294
REMARK  122  A    between atoms: _294  and  _295
REMARK  123  A    between atoms: _304  and  _306
REMARK  124  A    between atoms: _306  and  _307
REMARK  125  A    between atoms: _306  and  _309
REMARK  126  A    between atoms: _309  and  _310
REMARK  127  A    between atoms: _316  and  _318
REMARK  128  A    between atoms: _318  and  _319
REMARK  129  A    between atoms: _318  and  _321
REMARK  130  A    between atoms: _321  and  _322
REMARK  131  A    between atoms: _325  and  _327
REMARK  132  A    between atoms: _327  and  _328
REMARK  133  A    between atoms: _327  and  _330
REMARK  134  A    between atoms: _330  and  _331
REMARK  135  A    between atoms: _334  and  _336
REMARK  136  A    between atoms: _336  and  _337
REMARK  137  A    between atoms: _336  and  _339
REMARK  138  A    between atoms: _339  and  _340
REMARK  139  A    between atoms: _343  and  _345
REMARK  140  A    between atoms: _345  and  _346
REMARK  141  A    between atoms: _345  and  _348
REMARK  142  A    between atoms: _348  and  _349
REMARK  143  A    between atoms: _352  and  _354
REMARK  144  A    between atoms: _354  and  _355
REMARK  145  A    between atoms: _357  and  _359
REMARK  146  A    between atoms: _359  and  _360
REMARK  147  A    between atoms: _363  and  _365
REMARK  148  A    between atoms: _365  and  _366
REMARK  149  A    between atoms: _365  and  _368
REMARK  150  A    between atoms: _368  and  _369
REMARK  151  A    between atoms: _372  and  _374
REMARK  152  A    between atoms: _374  and  _375
REMARK  153  A    between atoms: _374  and  _377
REMARK  154  A    between atoms: _377  and  _378
REMARK  155  A    between atoms: _383  and  _385
REMARK  156  A    between atoms: _385  and  _386
REMARK  157  A    between atoms: _385  and  _388
REMARK  158  A    between atoms: _388  and  _389
REMARK  159  A    between atoms: _392  and  _394
REMARK  160  A    between atoms: _394  and  _395
REMARK  161  A    between atoms: _394  and  _397
REMARK  162  A    between atoms: _397  and  _398
REMARK  163  A    between atoms: _401  and  _403
REMARK  164  A    between atoms: _403  and  _404
REMARK  165  A    between atoms: _403  and  _406
REMARK  166  A    between atoms: _406  and  _407
REMARK  167  A    between atoms: _407  and  _408
REMARK  168  A    between atoms: _408  and  _409
REMARK  169  A    between atoms: _409  and  _410
REMARK  170  A    between atoms: _414  and  _416
REMARK  171  A    between atoms: _416  and  _417
REMARK  172  A    between atoms: _416  and  _419
REMARK  173  A    between atoms: _419  and  _420
REMARK  174  A    between atoms: _420  and  _421
REMARK  175  A    between atoms: _423  and  _425
REMARK  176  A    between atoms: _425  and  _426
REMARK  177  A    between atoms: _425  and  _428
REMARK  178  A    between atoms: _431  and  _433
REMARK  179  A    between atoms: _433  and  _434
REMARK  180  A    between atoms: _436  and  _438
REMARK  181  A    between atoms: _438  and  _439
REMARK  182  A    between atoms: _441  and  _443
REMARK  183  A    between atoms: _443  and  _444
REMARK  184  A    between atoms: _443  and  _446
REMARK  185  A    between atoms: _446  and  _447
REMARK  186  A    between atoms: _450  and  _452
REMARK  187  A    between atoms: _452  and  _453
REMARK  188  A    between atoms: _455  and  _457
REMARK  189  A    between atoms: _457  and  _458
REMARK  190  A    between atoms: _460  and  _462
REMARK  191  A    between atoms: _462  and  _463
REMARK  192  A    between atoms: _462  and  _465
REMARK  193  A    between atoms: _465  and  _466
REMARK  194  A    between atoms: _472  and  _474
REMARK  195  A    between atoms: _474  and  _475
REMARK  196  A    between atoms: _474  and  _477
REMARK  197  A    between atoms: _477  and  _478
REMARK  198  A    between atoms: _481  and  _483
REMARK  199  A    between atoms: _483  and  _484
REMARK  200  A    between atoms: _483  and  _486
REMARK  201  A    between atoms: _486  and  _487
REMARK  202  A    between atoms: _490  and  _492
REMARK  203  A    between atoms: _492  and  _493
REMARK  204  A    between atoms: _492  and  _495
REMARK  205  A    between atoms: _495  and  _496
REMARK  206  A    between atoms: _500  and  _501
REMARK  207  A    between atoms: _506  and  _508
REMARK  208  A    between atoms: _508  and  _509
REMARK  209  A    between atoms: _508  and  _511
REMARK  210  A    between atoms: _514  and  _516
REMARK  211  A    between atoms: _516  and  _517
REMARK  212  A    between atoms: _516  and  _519
REMARK  213  A    between atoms: _519  and  _520
REMARK  214  A    between atoms: _525  and  _527
REMARK  215  A    between atoms: _527  and  _528
REMARK  216  A    between atoms: _527  and  _530
REMARK  217  A    between atoms: _533  and  _535
REMARK  218  A    between atoms: _535  and  _536
REMARK  219  A    between atoms: _535  and  _538
REMARK  220  A    between atoms: _538  and  _539
REMARK  221  A    between atoms: _542  and  _544
REMARK  222  A    between atoms: _544  and  _545
REMARK  223  A    between atoms: _547  and  _549
REMARK  224  A    between atoms: _549  and  _550
REMARK  225  A    between atoms: _549  and  _552
REMARK  226  A    between atoms: _552  and  _553
REMARK  227  A    between atoms: _553  and  _554
REMARK  228  A    between atoms: _554  and  _555
REMARK  229  A    between atoms: _564  and  _566
REMARK  230  A    between atoms: _566  and  _567
REMARK  231  A    between atoms: _566  and  _569
REMARK  232  A    between atoms: _569  and  _570
REMARK                            x       y       z     vdW  Elec       q    Type
REMARK                         _______ _______ _______ _____ _____    ______ ____
ROOT
ATOM      1  O   HOH     1     -16.346 -12.820  -5.459  0.00  0.00    +0.000 OA
ENDROOT
TORSDOF 0
REMARK  Name = ../refined-set-2016/4ye3/4ye3_pocket.pdb
REMARK  232 active torsions:
REMARK  status: ('A' for Active; 'I' for Inactive)
REMARK    1  A    between atoms: _1  and  _3
REMARK    2  A    between atoms: _3  and  _4
REMARK    3  A    between atoms: _3  and  _6
REMARK    4  A    between atoms: _6  and  _7
REMARK    5  A    between atoms: _7  and  _8
REMARK    6  A    between atoms: _8  and  _9
REMARK    7  A    between atoms: _18  and  _20
REMARK    8  A    between atoms: _20  and  _21
REMARK    9  A    between atoms: _20  and  _23
REMARK   10  A    between atoms: _23  and  _24
REMARK   11  A    between atoms: _30  and  _32
REMARK   12  A    between atoms: _32  and  _33
REMARK   13  A    between atoms: _32  and  _35
REMARK   14  A    between atoms: _35  and  _36
REMARK   15  A    between atoms: _39  and  _41
REMARK   16  A    between atoms: _41  and  _42
REMARK   17  A    between atoms: _41  and  _44
REMARK   18  A    between atoms: _44  and  _45
REMARK   19  A    between atoms: _48  and  _50
REMARK   20  A    between atoms: _50  and  _51
REMARK   21  A    between atoms: _50  and  _53
REMARK   22  A    between atoms: _53  and  _54
REMARK   23  A    between atoms: _57  and  _59
REMARK   24  A    between atoms: _59  and  _60
REMARK   25  A    between atoms: _59  and  _62
REMARK   26  A    between atoms: _62  and  _63
REMARK   27  A    between atoms: _66  and  _68
REMARK   28  A    between atoms: _68  and  _69
REMARK   29  A    between atoms: _71  and  _73
REMARK   30  A    between atoms: _73  and  _74
REMARK   31  A    between atoms: _77  and  _79
REMARK   32  A    between atoms: _79  and  _80
REMARK   33  A    between atoms: _79  and  _82
REMARK   34  A    between atoms: _82  and  _83
REMARK   35  A    between atoms: _86  and  _88
REMARK   36  A    between atoms: _88  and  _89
REMARK   37  A    between atoms: _88  and  _91
REMARK   38  A    between atoms: _91  and  _92
REMARK   39  A    between atoms: _97  and  _99
REMARK   40  A    between atoms: _99  and  _100
REMARK   41  A    between atoms: _99  and  _102
REMARK   42  A    between atoms: _102  and  _103
REMARK   43  A    between atoms: _106  and  _108
REMARK   44  A    between atoms: _108  and  _109
REMARK   45  A    between atoms: _108  and  _111
REMARK   46  A    between atoms: _111  and  _112
REMARK   47  A    between atoms: _115  and  _117
REMARK   48  A    between atoms: _117  and  _118
REMARK   49  A    between atoms: _117  and  _120
REMARK   50  A    between atoms: _120  and  _121
REMARK   51  A    between atoms: _121  and  _122
REMARK   52  A    between atoms: _122  and  _123
REMARK   53  A    between atoms: _123  and  _124
REMARK   54  A    between atoms: _128  and  _130
REMARK   55  A    between atoms: _130  and  _131
REMARK   56  A    between atoms: _130  and  _133
REMARK   57  A    between atoms: _133  and  _134
REMARK   58  A    between atoms: _134  and  _135
REMARK   59  A    between atoms: _137  and  _139
REMARK   60  A    between atoms: _139  and  _140
REMARK   61  A    between atoms: _139  and  _142
REMARK   62  A    between atoms: _145  and  _147
REMARK   63  A    between atoms: _147  and  _148
REMARK   64  A    between atoms: _150  and  _152
REMARK   65  A    between atoms: _152  and  _153
REMARK   66  A    between atoms: _155  and  _157
REMARK   67  A    between atoms: _157  and  _158
REMARK   68  A    between atoms: _157  and  _160
REMARK   69  A    between atoms: _160  and  _161
REMARK   70  A    between atoms: _164  and  _166
REMARK   71  A    between atoms: _166  and  _167
REMARK   72  A    between atoms: _169  and  _171
REMARK   73  A    between atoms: _171  and  _172
REMARK   74  A    between atoms: _174  and  _176
REMARK   75  A    between atoms: _176  and  _177
REMARK   76  A    between atoms: _176  and  _179
REMARK   77  A    between atoms: _179  and  _180
REMARK   78  A    between atoms: _186  and  _188
REMARK   79  A    between atoms: _188  and  _189
REMARK   80  A    between atoms: _188  and  _191
REMARK   81  A    between atoms: _191  and  _192
REMARK   82  A    between atoms: _195  and  _197
REMARK   83  A    between atoms: _197  and  _198
REMARK   84  A    between atoms: _197  and  _200
REMARK   85  A    between atoms: _200  and  _201
REMARK   86  A    between atoms: _204  and  _206
REMARK   87  A    between atoms: _206  and  _207
REMARK   88  A    between atoms: _206  and  _209
REMARK   89  A    between atoms: _209  and  _210
REMARK   90  A    between atoms: _214  and  _215
REMARK   91  A    between atoms: _220  and  _222
REMARK   92  A    between atoms: _222  and  _223
REMARK   93  A    between atoms: _222  and  _225
REMARK   94  A    between atoms: _228  and  _230
REMARK   95  A    between atoms: _230  and  _231
REMARK   96  A    between atoms: _230  and  _233
REMARK   97  A    between atoms: _233  and  _234
REMARK   98  A    between atoms: _239  and  _241
REMARK   99  A    between atoms: _241  and  _242
REMARK  100  A    between atoms: _241  and  _244
REMARK  101  A    between atoms: _247  and  _249
REMARK  102  A    between atoms: _249  and  _250
REMARK  103  A    between atoms: _249  and  _252
REMARK  104  A    between atoms: _252  and  _253
REMARK  105  A    between atoms: _256  and  _258
REMARK  106  A    between atoms: _258  and  _259
REMARK  107  A    between atoms: _261  and  _263
REMARK  108  A    between atoms: _263  and  _264
REMARK  109  A    between atoms: _263  and  _266
REMARK  110  A    between atoms: _266  and  _267
REMARK  111  A    between atoms: _267  and  _268
REMARK  112  A    between atoms: _268  and  _269
REMARK  113  A    between atoms: _278  and  _280
REMARK  114  A    between atoms: _280  and  _281
REMARK  115  A    between atoms: _280  and  _283
REMARK  116  A    between atoms: _283  and  _284
REMARK  117  A    between atoms: _287  and  _289
REMARK  118  A    between atoms: _289  and  _290
REMARK  119  A    between atoms: _289  and  _292
REMARK  120  A    between atoms: _292  and  _293
REMARK  121  A    between atoms: _293  and  _294
REMARK  122  A    between atoms: _294  and  _295
REMARK  123  A    between atoms: _304  and  _306
REMARK  124  A    between atoms: _306  and  _307
REMARK  125  A    between atoms: _306  and  _309
REMARK  126  A    between atoms: _309  and  _310
REMARK  127  A    between atoms: _316  and  _318
REMARK  128  A    between atoms: _318  and  _319
REMARK  129  A    between atoms: _318  and  _321
REMARK  130  A    between atoms: _321  and  _322
REMARK  131  A    between atoms: _325  and  _327
REMARK  132  A    between atoms: _327  and  _328
REMARK  133  A    between atoms: _327  and  _330
REMARK  134  A    between atoms: _330  and  _331
REMARK  135  A    between atoms: _334  and  _336
REMARK  136  A    between atoms: _336  and  _337
REMARK  137  A    between atoms: _336  and  _339
REMARK  138  A    between atoms: _339  and  _340
REMARK  139  A    between atoms: _343  and  _345
REMARK  140  A    between atoms: _345  and  _346
REMARK  141  A    between atoms: _345  and  _348
REMARK  142  A    between atoms: _348  and  _349
REMARK  143  A    between atoms: _352  and  _354
REMARK  144  A    between atoms: _354  and  _355
REMARK  145  A    between atoms: _357  and  _359
REMARK  146  A    between atoms: _359  and  _360
REMARK  147  A    between atoms: _363  and  _365
REMARK  148  A    between atoms: _365  and  _366
REMARK  149  A    between atoms: _365  and  _368
REMARK  150  A    between atoms: _368  and  _369
REMARK  151  A    between atoms: _372  and  _374
REMARK  152  A    between atoms: _374  and  _375
REMARK  153  A    between atoms: _374  and  _377
REMARK  154  A    between atoms: _377  and  _378
REMARK  155  A    between atoms: _383  and  _385
REMARK  156  A    between atoms: _385  and  _386
REMARK  157  A    between atoms: _385  and  _388
REMARK  158  A    between atoms: _388  and  _389
REMARK  159  A    between atoms: _392  and  _394
REMARK  160  A    between atoms: _394  and  _395
REMARK  161  A    between atoms: _394  and  _397
REMARK  162  A    between atoms: _397  and  _398
REMARK  163  A    between atoms: _401  and  _403
REMARK  164  A    between atoms: _403  and  _404
REMARK  165  A    between atoms: _403  and  _406
REMARK  166  A    between atoms: _406  and  _407
REMARK  167  A    between atoms: _407  and  _408
REMARK  168  A    between atoms: _408  and  _409
REMARK  169  A    between atoms: _409  and  _410
REMARK  170  A    between atoms: _414  and  _416
REMARK  171  A    between atoms: _416  and  _417
REMARK  172  A    between atoms: _416  and  _419
REMARK  173  A    between atoms: _419  and  _420
REMARK  174  A    between atoms: _420  and  _421
REMARK  175  A    between atoms: _423  and  _425
REMARK  176  A    between atoms: _425  and  _426
REMARK  177  A    between atoms: _425  and  _428
REMARK  178  A    between atoms: _431  and  _433
REMARK  179  A    between atoms: _433  and  _434
REMARK  180  A    between atoms: _436  and  _438
REMARK  181  A    between atoms: _438  and  _439
REMARK  182  A    between atoms: _441  and  _443
REMARK  183  A    between atoms: _443  and  _444
REMARK  184  A    between atoms: _443  and  _446
REMARK  185  A    between atoms: _446  and  _447
REMARK  186  A    between atoms: _450  and  _452
REMARK  187  A    between atoms: _452  and  _453
REMARK  188  A    between atoms: _455  and  _457
REMARK  189  A    between atoms: _457  and  _458
REMARK  190  A    between atoms: _460  and  _462
REMARK  191  A    between atoms: _462  and  _463
REMARK  192  A    between atoms: _462  and  _465
REMARK  193  A    between atoms: _465  and  _466
REMARK  194  A    between atoms: _472  and  _474
REMARK  195  A    between atoms: _474  and  _475
REMARK  196  A    between atoms: _474  and  _477
REMARK  197  A    between atoms: _477  and  _478
REMARK  198  A    between atoms: _481  and  _483
REMARK  199  A    between atoms: _483  and  _484
REMARK  200  A    between atoms: _483  and  _486
REMARK  201  A    between atoms: _486  and  _487
REMARK  202  A    between atoms: _490  and  _492
REMARK  203  A    between atoms: _492  and  _493
REMARK  204  A    between atoms: _492  and  _495
REMARK  205  A    between atoms: _495  and  _496
REMARK  206  A    between atoms: _500  and  _501
REMARK  207  A    between atoms: _506  and  _508
REMARK  208  A    between atoms: _508  and  _509
REMARK  209  A    between atoms: _508  and  _511
REMARK  210  A    between atoms: _514  and  _516
REMARK  211  A    between atoms: _516  and  _517
REMARK  212  A    between atoms: _516  and  _519
REMARK  213  A    between atoms: _519  and  _520
REMARK  214  A    between atoms: _525  and  _527
REMARK  215  A    between atoms: _527  and  _528
REMARK  216  A    between atoms: _527  and  _530
REMARK  217  A    between atoms: _533  and  _535
REMARK  218  A    between atoms: _535  and  _536
REMARK  219  A    between atoms: _535  and  _538
REMARK  220  A    between atoms: _538  and  _539
REMARK  221  A    between atoms: _542  and  _544
REMARK  222  A    between atoms: _544  and  _545
REMARK  223  A    between atoms: _547  and  _549
REMARK  224  A    between atoms: _549  and  _550
REMARK  225  A    between atoms: _549  and  _552
REMARK  226  A    between atoms: _552  and  _553
REMARK  227  A    between atoms: _553  and  _554
REMARK  228  A    between atoms: _554  and  _555
REMARK  229  A    between atoms: _564  and  _566
REMARK  230  A    between atoms: _566  and  _567
REMARK  231  A    between atoms: _566  and  _569
REMARK  232  A    between atoms: _569  and  _570
REMARK                            x       y       z     vdW  Elec       q    Type
REMARK                         _______ _______ _______ _____ _____    ______ ____
ROOT
ATOM      1  O   HOH     1       1.110 -11.182  -3.842  0.00  0.00    +0.000 OA
ENDROOT
TORSDOF 0
REMARK  Name = ../refined-set-2016/4ye3/4ye3_pocket.pdb
REMARK  232 active torsions:
REMARK  status: ('A' for Active; 'I' for Inactive)
REMARK    1  A    between atoms: _1  and  _3
REMARK    2  A    between atoms: _3  and  _4
REMARK    3  A    between atoms: _3  and  _6
REMARK    4  A    between atoms: _6  and  _7
REMARK    5  A    between atoms: _7  and  _8
REMARK    6  A    between atoms: _8  and  _9
REMARK    7  A    between atoms: _18  and  _20
REMARK    8  A    between atoms: _20  and  _21
REMARK    9  A    between atoms: _20  and  _23
REMARK   10  A    between atoms: _23  and  _24
REMARK   11  A    between atoms: _30  and  _32
REMARK   12  A    between atoms: _32  and  _33
REMARK   13  A    between atoms: _32  and  _35
REMARK   14  A    between atoms: _35  and  _36
REMARK   15  A    between atoms: _39  and  _41
REMARK   16  A    between atoms: _41  and  _42
REMARK   17  A    between atoms: _41  and  _44
REMARK   18  A    between atoms: _44  and  _45
REMARK   19  A    between atoms: _48  and  _50
REMARK   20  A    between atoms: _50  and  _51
REMARK   21  A    between atoms: _50  and  _53
REMARK   22  A    between atoms: _53  and  _54
REMARK   23  A    between atoms: _57  and  _59
REMARK   24  A    between atoms: _59  and  _60
REMARK   25  A    between atoms: _59  and  _62
REMARK   26  A    between atoms: _62  and  _63
REMARK   27  A    between atoms: _66  and  _68
REMARK   28  A    between atoms: _68  and  _69
REMARK   29  A    between atoms: _71  and  _73
REMARK   30  A    between atoms: _73  and  _74
REMARK   31  A    between atoms: _77  and  _79
REMARK   32  A    between atoms: _79  and  _80
REMARK   33  A    between atoms: _79  and  _82
REMARK   34  A    between atoms: _82  and  _83
REMARK   35  A    between atoms: _86  and  _88
REMARK   36  A    between atoms: _88  and  _89
REMARK   37  A    between atoms: _88  and  _91
REMARK   38  A    between atoms: _91  and  _92
REMARK   39  A    between atoms: _97  and  _99
REMARK   40  A    between atoms: _99  and  _100
REMARK   41  A    between atoms: _99  and  _102
REMARK   42  A    between atoms: _102  and  _103
REMARK   43  A    between atoms: _106  and  _108
REMARK   44  A    between atoms: _108  and  _109
REMARK   45  A    between atoms: _108  and  _111
REMARK   46  A    between atoms: _111  and  _112
REMARK   47  A    between atoms: _115  and  _117
REMARK   48  A    between atoms: _117  and  _118
REMARK   49  A    between atoms: _117  and  _120
REMARK   50  A    between atoms: _120  and  _121
REMARK   51  A    between atoms: _121  and  _122
REMARK   52  A    between atoms: _122  and  _123
REMARK   53  A    between atoms: _123  and  _124
REMARK   54  A    between atoms: _128  and  _130
REMARK   55  A    between atoms: _130  and  _131
REMARK   56  A    between atoms: _130  and  _133
REMARK   57  A    between atoms: _133  and  _134
REMARK   58  A    between atoms: _134  and  _135
REMARK   59  A    between atoms: _137  and  _139
REMARK   60  A    between atoms: _139  and  _140
REMARK   61  A    between atoms: _139  and  _142
REMARK   62  A    between atoms: _145  and  _147
REMARK   63  A    between atoms: _147  and  _148
REMARK   64  A    between atoms: _150  and  _152
REMARK   65  A    between atoms: _152  and  _153
REMARK   66  A    between atoms: _155  and  _157
REMARK   67  A    between atoms: _157  and  _158
REMARK   68  A    between atoms: _157  and  _160
REMARK   69  A    between atoms: _160  and  _161
REMARK   70  A    between atoms: _164  and  _166
REMARK   71  A    between atoms: _166  and  _167
REMARK   72  A    between atoms: _169  and  _171
REMARK   73  A    between atoms: _171  and  _172
REMARK   74  A    between atoms: _174  and  _176
REMARK   75  A    between atoms: _176  and  _177
REMARK   76  A    between atoms: _176  and  _179
REMARK   77  A    between atoms: _179  and  _180
REMARK   78  A    between atoms: _186  and  _188
REMARK   79  A    between atoms: _188  and  _189
REMARK   80  A    between atoms: _188  and  _191
REMARK   81  A    between atoms: _191  and  _192
REMARK   82  A    between atoms: _195  and  _197
REMARK   83  A    between atoms: _197  and  _198
REMARK   84  A    between atoms: _197  and  _200
REMARK   85  A    between atoms: _200  and  _201
REMARK   86  A    between atoms: _204  and  _206
REMARK   87  A    between atoms: _206  and  _207
REMARK   88  A    between atoms: _206  and  _209
REMARK   89  A    between atoms: _209  and  _210
REMARK   90  A    between atoms: _214  and  _215
REMARK   91  A    between atoms: _220  and  _222
REMARK   92  A    between atoms: _222  and  _223
REMARK   93  A    between atoms: _222  and  _225
REMARK   94  A    between atoms: _228  and  _230
REMARK   95  A    between atoms: _230  and  _231
REMARK   96  A    between atoms: _230  and  _233
REMARK   97  A    between atoms: _233  and  _234
REMARK   98  A    between atoms: _239  and  _241
REMARK   99  A    between atoms: _241  and  _242
REMARK  100  A    between atoms: _241  and  _244
REMARK  101  A    between atoms: _247  and  _249
REMARK  102  A    between atoms: _249  and  _250
REMARK  103  A    between atoms: _249  and  _252
REMARK  104  A    between atoms: _252  and  _253
REMARK  105  A    between atoms: _256  and  _258
REMARK  106  A    between atoms: _258  and  _259
REMARK  107  A    between atoms: _261  and  _263
REMARK  108  A    between atoms: _263  and  _264
REMARK  109  A    between atoms: _263  and  _266
REMARK  110  A    between atoms: _266  and  _267
REMARK  111  A    between atoms: _267  and  _268
REMARK  112  A    between atoms: _268  and  _269
REMARK  113  A    between atoms: _278  and  _280
REMARK  114  A    between atoms: _280  and  _281
REMARK  115  A    between atoms: _280  and  _283
REMARK  116  A    between atoms: _283  and  _284
REMARK  117  A    between atoms: _287  and  _289
REMARK  118  A    between atoms: _289  and  _290
REMARK  119  A    between atoms: _289  and  _292
REMARK  120  A    between atoms: _292  and  _293
REMARK  121  A    between atoms: _293  and  _294
REMARK  122  A    between atoms: _294  and  _295
REMARK  123  A    between atoms: _304  and  _306
REMARK  124  A    between atoms: _306  and  _307
REMARK  125  A    between atoms: _306  and  _309
REMARK  126  A    between atoms: _309  and  _310
REMARK  127  A    between atoms: _316  and  _318
REMARK  128  A    between atoms: _318  and  _319
REMARK  129  A    between atoms: _318  and  _321
REMARK  130  A    between atoms: _321  and  _322
REMARK  131  A    between atoms: _325  and  _327
REMARK  132  A    between atoms: _327  and  _328
REMARK  133  A    between atoms: _327  and  _330
REMARK  134  A    between atoms: _330  and  _331
REMARK  135  A    between atoms: _334  and  _336
REMARK  136  A    between atoms: _336  and  _337
REMARK  137  A    between atoms: _336  and  _339
REMARK  138  A    between atoms: _339  and  _340
REMARK  139  A    between atoms: _343  and  _345
REMARK  140  A    between atoms: _345  and  _346
REMARK  141  A    between atoms: _345  and  _348
REMARK  142  A    between atoms: _348  and  _349
REMARK  143  A    between atoms: _352  and  _354
REMARK  144  A    between atoms: _354  and  _355
REMARK  145  A    between atoms: _357  and  _359
REMARK  146  A    between atoms: _359  and  _360
REMARK  147  A    between atoms: _363  and  _365
REMARK  148  A    between atoms: _365  and  _366
REMARK  149  A    between atoms: _365  and  _368
REMARK  150  A    between atoms: _368  and  _369
REMARK  151  A    between atoms: _372  and  _374
REMARK  152  A    between atoms: _374  and  _375
REMARK  153  A    between atoms: _374  and  _377
REMARK  154  A    between atoms: _377  and  _378
REMARK  155  A    between atoms: _383  and  _385
REMARK  156  A    between atoms: _385  and  _386
REMARK  157  A    between atoms: _385  and  _388
REMARK  158  A    between atoms: _388  and  _389
REMARK  159  A    between atoms: _392  and  _394
REMARK  160  A    between atoms: _394  and  _395
REMARK  161  A    between atoms: _394  and  _397
REMARK  162  A    between atoms: _397  and  _398
REMARK  163  A    between atoms: _401  and  _403
REMARK  164  A    between atoms: _403  and  _404
REMARK  165  A    between atoms: _403  and  _406
REMARK  166  A    between atoms: _406  and  _407
REMARK  167  A    between atoms: _407  and  _408
REMARK  168  A    between atoms: _408  and  _409
REMARK  169  A    between atoms: _409  and  _410
REMARK  170  A    between atoms: _414  and  _416
REMARK  171  A    between atoms: _416  and  _417
REMARK  172  A    between atoms: _416  and  _419
REMARK  173  A    between atoms: _419  and  _420
REMARK  174  A    between atoms: _420  and  _421
REMARK  175  A    between atoms: _423  and  _425
REMARK  176  A    between atoms: _425  and  _426
REMARK  177  A    between atoms: _425  and  _428
REMARK  178  A    between atoms: _431  and  _433
REMARK  179  A    between atoms: _433  and  _434
REMARK  180  A    between atoms: _436  and  _438
REMARK  181  A    between atoms: _438  and  _439
REMARK  182  A    between atoms: _441  and  _443
REMARK  183  A    between atoms: _443  and  _444
REMARK  184  A    between atoms: _443  and  _446
REMARK  185  A    between atoms: _446  and  _447
REMARK  186  A    between atoms: _450  and  _452
REMARK  187  A    between atoms: _452  and  _453
REMARK  188  A    between atoms: _455  and  _457
REMARK  189  A    between atoms: _457  and  _458
REMARK  190  A    between atoms: _460  and  _462
REMARK  191  A    between atoms: _462  and  _463
REMARK  192  A    between atoms: _462  and  _465
REMARK  193  A    between atoms: _465  and  _466
REMARK  194  A    between atoms: _472  and  _474
REMARK  195  A    between atoms: _474  and  _475
REMARK  196  A    between atoms: _474  and  _477
REMARK  197  A    between atoms: _477  and  _478
REMARK  198  A    between atoms: _481  and  _483
REMARK  199  A    between atoms: _483  and  _484
REMARK  200  A    between atoms: _483  and  _486
REMARK  201  A    between atoms: _486  and  _487
REMARK  202  A    between atoms: _490  and  _492
REMARK  203  A    between atoms: _492  and  _493
REMARK  204  A    between atoms: _492  and  _495
REMARK  205  A    between atoms: _495  and  _496
REMARK  206  A    between atoms: _500  and  _501
REMARK  207  A    between atoms: _506  and  _508
REMARK  208  A    between atoms: _508  and  _509
REMARK  209  A    between atoms: _508  and  _511
REMARK  210  A    between atoms: _514  and  _516
REMARK  211  A    between atoms: _516  and  _517
REMARK  212  A    between atoms: _516  and  _519
REMARK  213  A    between atoms: _519  and  _520
REMARK  214  A    between atoms: _525  and  _527
REMARK  215  A    between atoms: _527  and  _528
REMARK  216  A    between atoms: _527  and  _530
REMARK  217  A    between atoms: _533  and  _535
REMARK  218  A    between atoms: _535  and  _536
REMARK  219  A    between atoms: _535  and  _538
REMARK  220  A    between atoms: _538  and  _539
REMARK  221  A    between atoms: _542  and  _544
REMARK  222  A    between atoms: _544  and  _545
REMARK  223  A    between atoms: _547  and  _549
REMARK  224  A    between atoms: _549  and  _550
REMARK  225  A    between atoms: _549  and  _552
REMARK  226  A    between atoms: _552  and  _553
REMARK  227  A    between atoms: _553  and  _554
REMARK  228  A    between atoms: _554  and  _555
REMARK  229  A    between atoms: _564  and  _566
REMARK  230  A    between atoms: _566  and  _567
REMARK  231  A    between atoms: _566  and  _569
REMARK  232  A    between atoms: _569  and  _570
REMARK                            x       y       z     vdW  Elec       q    Type
REMARK                         _______ _______ _______ _____ _____    ______ ____
ROOT
ATOM      1  O   HOH     1      -4.229 -18.055   8.728  0.00  0.00    +0.000 OA
ENDROOT
TORSDOF 0
REMARK  Name = ../refined-set-2016/4ye3/4ye3_pocket.pdb
REMARK  232 active torsions:
REMARK  status: ('A' for Active; 'I' for Inactive)
REMARK    1  A    between atoms: _1  and  _3
REMARK    2  A    between atoms: _3  and  _4
REMARK    3  A    between atoms: _3  and  _6
REMARK    4  A    between atoms: _6  and  _7
REMARK    5  A    between atoms: _7  and  _8
REMARK    6  A    between atoms: _8  and  _9
REMARK    7  A    between atoms: _18  and  _20
REMARK    8  A    between atoms: _20  and  _21
REMARK    9  A    between atoms: _20  and  _23
REMARK   10  A    between atoms: _23  and  _24
REMARK   11  A    between atoms: _30  and  _32
REMARK   12  A    between atoms: _32  and  _33
REMARK   13  A    between atoms: _32  and  _35
REMARK   14  A    between atoms: _35  and  _36
REMARK   15  A    between atoms: _39  and  _41
REMARK   16  A    between atoms: _41  and  _42
REMARK   17  A    between atoms: _41  and  _44
REMARK   18  A    between atoms: _44  and  _45
REMARK   19  A    between atoms: _48  and  _50
REMARK   20  A    between atoms: _50  and  _51
REMARK   21  A    between atoms: _50  and  _53
REMARK   22  A    between atoms: _53  and  _54
REMARK   23  A    between atoms: _57  and  _59
REMARK   24  A    between atoms: _59  and  _60
REMARK   25  A    between atoms: _59  and  _62
REMARK   26  A    between atoms: _62  and  _63
REMARK   27  A    between atoms: _66  and  _68
REMARK   28  A    between atoms: _68  and  _69
REMARK   29  A    between atoms: _71  and  _73
REMARK   30  A    between atoms: _73  and  _74
REMARK   31  A    between atoms: _77  and  _79
REMARK   32  A    between atoms: _79  and  _80
REMARK   33  A    between atoms: _79  and  _82
REMARK   34  A    between atoms: _82  and  _83
REMARK   35  A    between atoms: _86  and  _88
REMARK   36  A    between atoms: _88  and  _89
REMARK   37  A    between atoms: _88  and  _91
REMARK   38  A    between atoms: _91  and  _92
REMARK   39  A    between atoms: _97  and  _99
REMARK   40  A    between atoms: _99  and  _100
REMARK   41  A    between atoms: _99  and  _102
REMARK   42  A    between atoms: _102  and  _103
REMARK   43  A    between atoms: _106  and  _108
REMARK   44  A    between atoms: _108  and  _109
REMARK   45  A    between atoms: _108  and  _111
REMARK   46  A    between atoms: _111  and  _112
REMARK   47  A    between atoms: _115  and  _117
REMARK   48  A    between atoms: _117  and  _118
REMARK   49  A    between atoms: _117  and  _120
REMARK   50  A    between atoms: _120  and  _121
REMARK   51  A    between atoms: _121  and  _122
REMARK   52  A    between atoms: _122  and  _123
REMARK   53  A    between atoms: _123  and  _124
REMARK   54  A    between atoms: _128  and  _130
REMARK   55  A    between atoms: _130  and  _131
REMARK   56  A    between atoms: _130  and  _133
REMARK   57  A    between atoms: _133  and  _134
REMARK   58  A    between atoms: _134  and  _135
REMARK   59  A    between atoms: _137  and  _139
REMARK   60  A    between atoms: _139  and  _140
REMARK   61  A    between atoms: _139  and  _142
REMARK   62  A    between atoms: _145  and  _147
REMARK   63  A    between atoms: _147  and  _148
REMARK   64  A    between atoms: _150  and  _152
REMARK   65  A    between atoms: _152  and  _153
REMARK   66  A    between atoms: _155  and  _157
REMARK   67  A    between atoms: _157  and  _158
REMARK   68  A    between atoms: _157  and  _160
REMARK   69  A    between atoms: _160  and  _161
REMARK   70  A    between atoms: _164  and  _166
REMARK   71  A    between atoms: _166  and  _167
REMARK   72  A    between atoms: _169  and  _171
REMARK   73  A    between atoms: _171  and  _172
REMARK   74  A    between atoms: _174  and  _176
REMARK   75  A    between atoms: _176  and  _177
REMARK   76  A    between atoms: _176  and  _179
REMARK   77  A    between atoms: _179  and  _180
REMARK   78  A    between atoms: _186  and  _188
REMARK   79  A    between atoms: _188  and  _189
REMARK   80  A    between atoms: _188  and  _191
REMARK   81  A    between atoms: _191  and  _192
REMARK   82  A    between atoms: _195  and  _197
REMARK   83  A    between atoms: _197  and  _198
REMARK   84  A    between atoms: _197  and  _200
REMARK   85  A    between atoms: _200  and  _201
REMARK   86  A    between atoms: _204  and  _206
REMARK   87  A    between atoms: _206  and  _207
REMARK   88  A    between atoms: _206  and  _209
REMARK   89  A    between atoms: _209  and  _210
REMARK   90  A    between atoms: _214  and  _215
REMARK   91  A    between atoms: _220  and  _222
REMARK   92  A    between atoms: _222  and  _223
REMARK   93  A    between atoms: _222  and  _225
REMARK   94  A    between atoms: _228  and  _230
REMARK   95  A    between atoms: _230  and  _231
REMARK   96  A    between atoms: _230  and  _233
REMARK   97  A    between atoms: _233  and  _234
REMARK   98  A    between atoms: _239  and  _241
REMARK   99  A    between atoms: _241  and  _242
REMARK  100  A    between atoms: _241  and  _244
REMARK  101  A    between atoms: _247  and  _249
REMARK  102  A    between atoms: _249  and  _250
REMARK  103  A    between atoms: _249  and  _252
REMARK  104  A    between atoms: _252  and  _253
REMARK  105  A    between atoms: _256  and  _258
REMARK  106  A    between atoms: _258  and  _259
REMARK  107  A    between atoms: _261  and  _263
REMARK  108  A    between atoms: _263  and  _264
REMARK  109  A    between atoms: _263  and  _266
REMARK  110  A    between atoms: _266  and  _267
REMARK  111  A    between atoms: _267  and  _268
REMARK  112  A    between atoms: _268  and  _269
REMARK  113  A    between atoms: _278  and  _280
REMARK  114  A    between atoms: _280  and  _281
REMARK  115  A    between atoms: _280  and  _283
REMARK  116  A    between atoms: _283  and  _284
REMARK  117  A    between atoms: _287  and  _289
REMARK  118  A    between atoms: _289  and  _290
REMARK  119  A    between atoms: _289  and  _292
REMARK  120  A    between atoms: _292  and  _293
REMARK  121  A    between atoms: _293  and  _294
REMARK  122  A    between atoms: _294  and  _295
REMARK  123  A    between atoms: _304  and  _306
REMARK  124  A    between atoms: _306  and  _307
REMARK  125  A    between atoms: _306  and  _309
REMARK  126  A    between atoms: _309  and  _310
REMARK  127  A    between atoms: _316  and  _318
REMARK  128  A    between atoms: _318  and  _319
REMARK  129  A    between atoms: _318  and  _321
REMARK  130  A    between atoms: _321  and  _322
REMARK  131  A    between atoms: _325  and  _327
REMARK  132  A    between atoms: _327  and  _328
REMARK  133  A    between atoms: _327  and  _330
REMARK  134  A    between atoms: _330  and  _331
REMARK  135  A    between atoms: _334  and  _336
REMARK  136  A    between atoms: _336  and  _337
REMARK  137  A    between atoms: _336  and  _339
REMARK  138  A    between atoms: _339  and  _340
REMARK  139  A    between atoms: _343  and  _345
REMARK  140  A    between atoms: _345  and  _346
REMARK  141  A    between atoms: _345  and  _348
REMARK  142  A    between atoms: _348  and  _349
REMARK  143  A    between atoms: _352  and  _354
REMARK  144  A    between atoms: _354  and  _355
REMARK  145  A    between atoms: _357  and  _359
REMARK  146  A    between atoms: _359  and  _360
REMARK  147  A    between atoms: _363  and  _365
REMARK  148  A    between atoms: _365  and  _366
REMARK  149  A    between atoms: _365  and  _368
REMARK  150  A    between atoms: _368  and  _369
REMARK  151  A    between atoms: _372  and  _374
REMARK  152  A    between atoms: _374  and  _375
REMARK  153  A    between atoms: _374  and  _377
REMARK  154  A    between atoms: _377  and  _378
REMARK  155  A    between atoms: _383  and  _385
REMARK  156  A    between atoms: _385  and  _386
REMARK  157  A    between atoms: _385  and  _388
REMARK  158  A    between atoms: _388  and  _389
REMARK  159  A    between atoms: _392  and  _394
REMARK  160  A    between atoms: _394  and  _395
REMARK  161  A    between atoms: _394  and  _397
REMARK  162  A    between atoms: _397  and  _398
REMARK  163  A    between atoms: _401  and  _403
REMARK  164  A    between atoms: _403  and  _404
REMARK  165  A    between atoms: _403  and  _406
REMARK  166  A    between atoms: _406  and  _407
REMARK  167  A    between atoms: _407  and  _408
REMARK  168  A    between atoms: _408  and  _409
REMARK  169  A    between atoms: _409  and  _410
REMARK  170  A    between atoms: _414  and  _416
REMARK  171  A    between atoms: _416  and  _417
REMARK  172  A    between atoms: _416  and  _419
REMARK  173  A    between atoms: _419  and  _420
REMARK  174  A    between atoms: _420  and  _421
REMARK  175  A    between atoms: _423  and  _425
REMARK  176  A    between atoms: _425  and  _426
REMARK  177  A    between atoms: _425  and  _428
REMARK  178  A    between atoms: _431  and  _433
REMARK  179  A    between atoms: _433  and  _434
REMARK  180  A    between atoms: _436  and  _438
REMARK  181  A    between atoms: _438  and  _439
REMARK  182  A    between atoms: _441  and  _443
REMARK  183  A    between atoms: _443  and  _444
REMARK  184  A    between atoms: _443  and  _446
REMARK  185  A    between atoms: _446  and  _447
REMARK  186  A    between atoms: _450  and  _452
REMARK  187  A    between atoms: _452  and  _453
REMARK  188  A    between atoms: _455  and  _457
REMARK  189  A    between atoms: _457  and  _458
REMARK  190  A    between atoms: _460  and  _462
REMARK  191  A    between atoms: _462  and  _463
REMARK  192  A    between atoms: _462  and  _465
REMARK  193  A    between atoms: _465  and  _466
REMARK  194  A    between atoms: _472  and  _474
REMARK  195  A    between atoms: _474  and  _475
REMARK  196  A    between atoms: _474  and  _477
REMARK  197  A    between atoms: _477  and  _478
REMARK  198  A    between atoms: _481  and  _483
REMARK  199  A    between atoms: _483  and  _484
REMARK  200  A    between atoms: _483  and  _486
REMARK  201  A    between atoms: _486  and  _487
REMARK  202  A    between atoms: _490  and  _492
REMARK  203  A    between atoms: _492  and  _493
REMARK  204  A    between atoms: _492  and  _495
REMARK  205  A    between atoms: _495  and  _496
REMARK  206  A    between atoms: _500  and  _501
REMARK  207  A    between atoms: _506  and  _508
REMARK  208  A    between atoms: _508  and  _509
REMARK  209  A    between atoms: _508  and  _511
REMARK  210  A    between atoms: _514  and  _516
REMARK  211  A    between atoms: _516  and  _517
REMARK  212  A    between atoms: _516  and  _519
REMARK  213  A    between atoms: _519  and  _520
REMARK  214  A    between atoms: _525  and  _527
REMARK  215  A    between atoms: _527  and  _528
REMARK  216  A    between atoms: _527  and  _530
REMARK  217  A    between atoms: _533  and  _535
REMARK  218  A    between atoms: _535  and  _536
REMARK  219  A    between atoms: _535  and  _538
REMARK  220  A    between atoms: _538  and  _539
REMARK  221  A    between atoms: _542  and  _544
REMARK  222  A    between atoms: _544  and  _545
REMARK  223  A    between atoms: _547  and  _549
REMARK  224  A    between atoms: _549  and  _550
REMARK  225  A    between atoms: _549  and  _552
REMARK  226  A    between atoms: _552  and  _553
REMARK  227  A    between atoms: _553  and  _554
REMARK  228  A    between atoms: _554  and  _555
REMARK  229  A    between atoms: _564  and  _566
REMARK  230  A    between atoms: _566  and  _567
REMARK  231  A    between atoms: _566  and  _569
REMARK  232  A    between atoms: _569  and  _570
REMARK                            x       y       z     vdW  Elec       q    Type
REMARK                         _______ _______ _______ _____ _____    ______ ____
ROOT
ATOM      1  O   HOH     1      -7.571 -23.134   3.053  0.00  0.00    +0.000 OA
ENDROOT
TORSDOF 0
REMARK  Name = ../refined-set-2016/4ye3/4ye3_pocket.pdb
REMARK  232 active torsions:
REMARK  status: ('A' for Active; 'I' for Inactive)
REMARK    1  A    between atoms: _1  and  _3
REMARK    2  A    between atoms: _3  and  _4
REMARK    3  A    between atoms: _3  and  _6
REMARK    4  A    between atoms: _6  and  _7
REMARK    5  A    between atoms: _7  and  _8
REMARK    6  A    between atoms: _8  and  _9
REMARK    7  A    between atoms: _18  and  _20
REMARK    8  A    between atoms: _20  and  _21
REMARK    9  A    between atoms: _20  and  _23
REMARK   10  A    between atoms: _23  and  _24
REMARK   11  A    between atoms: _30  and  _32
REMARK   12  A    between atoms: _32  and  _33
REMARK   13  A    between atoms: _32  and  _35
REMARK   14  A    between atoms: _35  and  _36
REMARK   15  A    between atoms: _39  and  _41
REMARK   16  A    between atoms: _41  and  _42
REMARK   17  A    between atoms: _41  and  _44
REMARK   18  A    between atoms: _44  and  _45
REMARK   19  A    between atoms: _48  and  _50
REMARK   20  A    between atoms: _50  and  _51
REMARK   21  A    between atoms: _50  and  _53
REMARK   22  A    between atoms: _53  and  _54
REMARK   23  A    between atoms: _57  and  _59
REMARK   24  A    between atoms: _59  and  _60
REMARK   25  A    between atoms: _59  and  _62
REMARK   26  A    between atoms: _62  and  _63
REMARK   27  A    between atoms: _66  and  _68
REMARK   28  A    between atoms: _68  and  _69
REMARK   29  A    between atoms: _71  and  _73
REMARK   30  A    between atoms: _73  and  _74
REMARK   31  A    between atoms: _77  and  _79
REMARK   32  A    between atoms: _79  and  _80
REMARK   33  A    between atoms: _79  and  _82
REMARK   34  A    between atoms: _82  and  _83
REMARK   35  A    between atoms: _86  and  _88
REMARK   36  A    between atoms: _88  and  _89
REMARK   37  A    between atoms: _88  and  _91
REMARK   38  A    between atoms: _91  and  _92
REMARK   39  A    between atoms: _97  and  _99
REMARK   40  A    between atoms: _99  and  _100
REMARK   41  A    between atoms: _99  and  _102
REMARK   42  A    between atoms: _102  and  _103
REMARK   43  A    between atoms: _106  and  _108
REMARK   44  A    between atoms: _108  and  _109
REMARK   45  A    between atoms: _108  and  _111
REMARK   46  A    between atoms: _111  and  _112
REMARK   47  A    between atoms: _115  and  _117
REMARK   48  A    between atoms: _117  and  _118
REMARK   49  A    between atoms: _117  and  _120
REMARK   50  A    between atoms: _120  and  _121
REMARK   51  A    between atoms: _121  and  _122
REMARK   52  A    between atoms: _122  and  _123
REMARK   53  A    between atoms: _123  and  _124
REMARK   54  A    between atoms: _128  and  _130
REMARK   55  A    between atoms: _130  and  _131
REMARK   56  A    between atoms: _130  and  _133
REMARK   57  A    between atoms: _133  and  _134
REMARK   58  A    between atoms: _134  and  _135
REMARK   59  A    between atoms: _137  and  _139
REMARK   60  A    between atoms: _139  and  _140
REMARK   61  A    between atoms: _139  and  _142
REMARK   62  A    between atoms: _145  and  _147
REMARK   63  A    between atoms: _147  and  _148
REMARK   64  A    between atoms: _150  and  _152
REMARK   65  A    between atoms: _152  and  _153
REMARK   66  A    between atoms: _155  and  _157
REMARK   67  A    between atoms: _157  and  _158
REMARK   68  A    between atoms: _157  and  _160
REMARK   69  A    between atoms: _160  and  _161
REMARK   70  A    between atoms: _164  and  _166
REMARK   71  A    between atoms: _166  and  _167
REMARK   72  A    between atoms: _169  and  _171
REMARK   73  A    between atoms: _171  and  _172
REMARK   74  A    between atoms: _174  and  _176
REMARK   75  A    between atoms: _176  and  _177
REMARK   76  A    between atoms: _176  and  _179
REMARK   77  A    between atoms: _179  and  _180
REMARK   78  A    between atoms: _186  and  _188
REMARK   79  A    between atoms: _188  and  _189
REMARK   80  A    between atoms: _188  and  _191
REMARK   81  A    between atoms: _191  and  _192
REMARK   82  A    between atoms: _195  and  _197
REMARK   83  A    between atoms: _197  and  _198
REMARK   84  A    between atoms: _197  and  _200
REMARK   85  A    between atoms: _200  and  _201
REMARK   86  A    between atoms: _204  and  _206
REMARK   87  A    between atoms: _206  and  _207
REMARK   88  A    between atoms: _206  and  _209
REMARK   89  A    between atoms: _209  and  _210
REMARK   90  A    between atoms: _214  and  _215
REMARK   91  A    between atoms: _220  and  _222
REMARK   92  A    between atoms: _222  and  _223
REMARK   93  A    between atoms: _222  and  _225
REMARK   94  A    between atoms: _228  and  _230
REMARK   95  A    between atoms: _230  and  _231
REMARK   96  A    between atoms: _230  and  _233
REMARK   97  A    between atoms: _233  and  _234
REMARK   98  A    between atoms: _239  and  _241
REMARK   99  A    between atoms: _241  and  _242
REMARK  100  A    between atoms: _241  and  _244
REMARK  101  A    between atoms: _247  and  _249
REMARK  102  A    between atoms: _249  and  _250
REMARK  103  A    between atoms: _249  and  _252
REMARK  104  A    between atoms: _252  and  _253
REMARK  105  A    between atoms: _256  and  _258
REMARK  106  A    between atoms: _258  and  _259
REMARK  107  A    between atoms: _261  and  _263
REMARK  108  A    between atoms: _263  and  _264
REMARK  109  A    between atoms: _263  and  _266
REMARK  110  A    between atoms: _266  and  _267
REMARK  111  A    between atoms: _267  and  _268
REMARK  112  A    between atoms: _268  and  _269
REMARK  113  A    between atoms: _278  and  _280
REMARK  114  A    between atoms: _280  and  _281
REMARK  115  A    between atoms: _280  and  _283
REMARK  116  A    between atoms: _283  and  _284
REMARK  117  A    between atoms: _287  and  _289
REMARK  118  A    between atoms: _289  and  _290
REMARK  119  A    between atoms: _289  and  _292
REMARK  120  A    between atoms: _292  and  _293
REMARK  121  A    between atoms: _293  and  _294
REMARK  122  A    between atoms: _294  and  _295
REMARK  123  A    between atoms: _304  and  _306
REMARK  124  A    between atoms: _306  and  _307
REMARK  125  A    between atoms: _306  and  _309
REMARK  126  A    between atoms: _309  and  _310
REMARK  127  A    between atoms: _316  and  _318
REMARK  128  A    between atoms: _318  and  _319
REMARK  129  A    between atoms: _318  and  _321
REMARK  130  A    between atoms: _321  and  _322
REMARK  131  A    between atoms: _325  and  _327
REMARK  132  A    between atoms: _327  and  _328
REMARK  133  A    between atoms: _327  and  _330
REMARK  134  A    between atoms: _330  and  _331
REMARK  135  A    between atoms: _334  and  _336
REMARK  136  A    between atoms: _336  and  _337
REMARK  137  A    between atoms: _336  and  _339
REMARK  138  A    between atoms: _339  and  _340
REMARK  139  A    between atoms: _343  and  _345
REMARK  140  A    between atoms: _345  and  _346
REMARK  141  A    between atoms: _345  and  _348
REMARK  142  A    between atoms: _348  and  _349
REMARK  143  A    between atoms: _352  and  _354
REMARK  144  A    between atoms: _354  and  _355
REMARK  145  A    between atoms: _357  and  _359
REMARK  146  A    between atoms: _359  and  _360
REMARK  147  A    between atoms: _363  and  _365
REMARK  148  A    between atoms: _365  and  _366
REMARK  149  A    between atoms: _365  and  _368
REMARK  150  A    between atoms: _368  and  _369
REMARK  151  A    between atoms: _372  and  _374
REMARK  152  A    between atoms: _374  and  _375
REMARK  153  A    between atoms: _374  and  _377
REMARK  154  A    between atoms: _377  and  _378
REMARK  155  A    between atoms: _383  and  _385
REMARK  156  A    between atoms: _385  and  _386
REMARK  157  A    between atoms: _385  and  _388
REMARK  158  A    between atoms: _388  and  _389
REMARK  159  A    between atoms: _392  and  _394
REMARK  160  A    between atoms: _394  and  _395
REMARK  161  A    between atoms: _394  and  _397
REMARK  162  A    between atoms: _397  and  _398
REMARK  163  A    between atoms: _401  and  _403
REMARK  164  A    between atoms: _403  and  _404
REMARK  165  A    between atoms: _403  and  _406
REMARK  166  A    between atoms: _406  and  _407
REMARK  167  A    between atoms: _407  and  _408
REMARK  168  A    between atoms: _408  and  _409
REMARK  169  A    between atoms: _409  and  _410
REMARK  170  A    between atoms: _414  and  _416
REMARK  171  A    between atoms: _416  and  _417
REMARK  172  A    between atoms: _416  and  _419
REMARK  173  A    between atoms: _419  and  _420
REMARK  174  A    between atoms: _420  and  _421
REMARK  175  A    between atoms: _423  and  _425
REMARK  176  A    between atoms: _425  and  _426
REMARK  177  A    between atoms: _425  and  _428
REMARK  178  A    between atoms: _431  and  _433
REMARK  179  A    between atoms: _433  and  _434
REMARK  180  A    between atoms: _436  and  _438
REMARK  181  A    between atoms: _438  and  _439
REMARK  182  A    between atoms: _441  and  _443
REMARK  183  A    between atoms: _443  and  _444
REMARK  184  A    between atoms: _443  and  _446
REMARK  185  A    between atoms: _446  and  _447
REMARK  186  A    between atoms: _450  and  _452
REMARK  187  A    between atoms: _452  and  _453
REMARK  188  A    between atoms: _455  and  _457
REMARK  189  A    between atoms: _457  and  _458
REMARK  190  A    between atoms: _460  and  _462
REMARK  191  A    between atoms: _462  and  _463
REMARK  192  A    between atoms: _462  and  _465
REMARK  193  A    between atoms: _465  and  _466
REMARK  194  A    between atoms: _472  and  _474
REMARK  195  A    between atoms: _474  and  _475
REMARK  196  A    between atoms: _474  and  _477
REMARK  197  A    between atoms: _477  and  _478
REMARK  198  A    between atoms: _481  and  _483
REMARK  199  A    between atoms: _483  and  _484
REMARK  200  A    between atoms: _483  and  _486
REMARK  201  A    between atoms: _486  and  _487
REMARK  202  A    between atoms: _490  and  _492
REMARK  203  A    between atoms: _492  and  _493
REMARK  204  A    between atoms: _492  and  _495
REMARK  205  A    between atoms: _495  and  _496
REMARK  206  A    between atoms: _500  and  _501
REMARK  207  A    between atoms: _506  and  _508
REMARK  208  A    between atoms: _508  and  _509
REMARK  209  A    between atoms: _508  and  _511
REMARK  210  A    between atoms: _514  and  _516
REMARK  211  A    between atoms: _516  and  _517
REMARK  212  A    between atoms: _516  and  _519
REMARK  213  A    between atoms: _519  and  _520
REMARK  214  A    between atoms: _525  and  _527
REMARK  215  A    between atoms: _527  and  _528
REMARK  216  A    between atoms: _527  and  _530
REMARK  217  A    between atoms: _533  and  _535
REMARK  218  A    between atoms: _535  and  _536
REMARK  219  A    between atoms: _535  and  _538
REMARK  220  A    between atoms: _538  and  _539
REMARK  221  A    between atoms: _542  and  _544
REMARK  222  A    between atoms: _544  and  _545
REMARK  223  A    between atoms: _547  and  _549
REMARK  224  A    between atoms: _549  and  _550
REMARK  225  A    between atoms: _549  and  _552
REMARK  226  A    between atoms: _552  and  _553
REMARK  227  A    between atoms: _553  and  _554
REMARK  228  A    between atoms: _554  and  _555
REMARK  229  A    between atoms: _564  and  _566
REMARK  230  A    between atoms: _566  and  _567
REMARK  231  A    between atoms: _566  and  _569
REMARK  232  A    between atoms: _569  and  _570
REMARK                            x       y       z     vdW  Elec       q    Type
REMARK                         _______ _______ _______ _____ _____    ______ ____
ROOT
ATOM      1  O   HOH     1      -5.721 -21.075   2.950  0.00  0.00    +0.000 OA
ENDROOT
TORSDOF 0
REMARK  Name = ../refined-set-2016/4ye3/4ye3_pocket.pdb
REMARK  232 active torsions:
REMARK  status: ('A' for Active; 'I' for Inactive)
REMARK    1  A    between atoms: _1  and  _3
REMARK    2  A    between atoms: _3  and  _4
REMARK    3  A    between atoms: _3  and  _6
REMARK    4  A    between atoms: _6  and  _7
REMARK    5  A    between atoms: _7  and  _8
REMARK    6  A    between atoms: _8  and  _9
REMARK    7  A    between atoms: _18  and  _20
REMARK    8  A    between atoms: _20  and  _21
REMARK    9  A    between atoms: _20  and  _23
REMARK   10  A    between atoms: _23  and  _24
REMARK   11  A    between atoms: _30  and  _32
REMARK   12  A    between atoms: _32  and  _33
REMARK   13  A    between atoms: _32  and  _35
REMARK   14  A    between atoms: _35  and  _36
REMARK   15  A    between atoms: _39  and  _41
REMARK   16  A    between atoms: _41  and  _42
REMARK   17  A    between atoms: _41  and  _44
REMARK   18  A    between atoms: _44  and  _45
REMARK   19  A    between atoms: _48  and  _50
REMARK   20  A    between atoms: _50  and  _51
REMARK   21  A    between atoms: _50  and  _53
REMARK   22  A    between atoms: _53  and  _54
REMARK   23  A    between atoms: _57  and  _59
REMARK   24  A    between atoms: _59  and  _60
REMARK   25  A    between atoms: _59  and  _62
REMARK   26  A    between atoms: _62  and  _63
REMARK   27  A    between atoms: _66  and  _68
REMARK   28  A    between atoms: _68  and  _69
REMARK   29  A    between atoms: _71  and  _73
REMARK   30  A    between atoms: _73  and  _74
REMARK   31  A    between atoms: _77  and  _79
REMARK   32  A    between atoms: _79  and  _80
REMARK   33  A    between atoms: _79  and  _82
REMARK   34  A    between atoms: _82  and  _83
REMARK   35  A    between atoms: _86  and  _88
REMARK   36  A    between atoms: _88  and  _89
REMARK   37  A    between atoms: _88  and  _91
REMARK   38  A    between atoms: _91  and  _92
REMARK   39  A    between atoms: _97  and  _99
REMARK   40  A    between atoms: _99  and  _100
REMARK   41  A    between atoms: _99  and  _102
REMARK   42  A    between atoms: _102  and  _103
REMARK   43  A    between atoms: _106  and  _108
REMARK   44  A    between atoms: _108  and  _109
REMARK   45  A    between atoms: _108  and  _111
REMARK   46  A    between atoms: _111  and  _112
REMARK   47  A    between atoms: _115  and  _117
REMARK   48  A    between atoms: _117  and  _118
REMARK   49  A    between atoms: _117  and  _120
REMARK   50  A    between atoms: _120  and  _121
REMARK   51  A    between atoms: _121  and  _122
REMARK   52  A    between atoms: _122  and  _123
REMARK   53  A    between atoms: _123  and  _124
REMARK   54  A    between atoms: _128  and  _130
REMARK   55  A    between atoms: _130  and  _131
REMARK   56  A    between atoms: _130  and  _133
REMARK   57  A    between atoms: _133  and  _134
REMARK   58  A    between atoms: _134  and  _135
REMARK   59  A    between atoms: _137  and  _139
REMARK   60  A    between atoms: _139  and  _140
REMARK   61  A    between atoms: _139  and  _142
REMARK   62  A    between atoms: _145  and  _147
REMARK   63  A    between atoms: _147  and  _148
REMARK   64  A    between atoms: _150  and  _152
REMARK   65  A    between atoms: _152  and  _153
REMARK   66  A    between atoms: _155  and  _157
REMARK   67  A    between atoms: _157  and  _158
REMARK   68  A    between atoms: _157  and  _160
REMARK   69  A    between atoms: _160  and  _161
REMARK   70  A    between atoms: _164  and  _166
REMARK   71  A    between atoms: _166  and  _167
REMARK   72  A    between atoms: _169  and  _171
REMARK   73  A    between atoms: _171  and  _172
REMARK   74  A    between atoms: _174  and  _176
REMARK   75  A    between atoms: _176  and  _177
REMARK   76  A    between atoms: _176  and  _179
REMARK   77  A    between atoms: _179  and  _180
REMARK   78  A    between atoms: _186  and  _188
REMARK   79  A    between atoms: _188  and  _189
REMARK   80  A    between atoms: _188  and  _191
REMARK   81  A    between atoms: _191  and  _192
REMARK   82  A    between atoms: _195  and  _197
REMARK   83  A    between atoms: _197  and  _198
REMARK   84  A    between atoms: _197  and  _200
REMARK   85  A    between atoms: _200  and  _201
REMARK   86  A    between atoms: _204  and  _206
REMARK   87  A    between atoms: _206  and  _207
REMARK   88  A    between atoms: _206  and  _209
REMARK   89  A    between atoms: _209  and  _210
REMARK   90  A    between atoms: _214  and  _215
REMARK   91  A    between atoms: _220  and  _222
REMARK   92  A    between atoms: _222  and  _223
REMARK   93  A    between atoms: _222  and  _225
REMARK   94  A    between atoms: _228  and  _230
REMARK   95  A    between atoms: _230  and  _231
REMARK   96  A    between atoms: _230  and  _233
REMARK   97  A    between atoms: _233  and  _234
REMARK   98  A    between atoms: _239  and  _241
REMARK   99  A    between atoms: _241  and  _242
REMARK  100  A    between atoms: _241  and  _244
REMARK  101  A    between atoms: _247  and  _249
REMARK  102  A    between atoms: _249  and  _250
REMARK  103  A    between atoms: _249  and  _252
REMARK  104  A    between atoms: _252  and  _253
REMARK  105  A    between atoms: _256  and  _258
REMARK  106  A    between atoms: _258  and  _259
REMARK  107  A    between atoms: _261  and  _263
REMARK  108  A    between atoms: _263  and  _264
REMARK  109  A    between atoms: _263  and  _266
REMARK  110  A    between atoms: _266  and  _267
REMARK  111  A    between atoms: _267  and  _268
REMARK  112  A    between atoms: _268  and  _269
REMARK  113  A    between atoms: _278  and  _280
REMARK  114  A    between atoms: _280  and  _281
REMARK  115  A    between atoms: _280  and  _283
REMARK  116  A    between atoms: _283  and  _284
REMARK  117  A    between atoms: _287  and  _289
REMARK  118  A    between atoms: _289  and  _290
REMARK  119  A    between atoms: _289  and  _292
REMARK  120  A    between atoms: _292  and  _293
REMARK  121  A    between atoms: _293  and  _294
REMARK  122  A    between atoms: _294  and  _295
REMARK  123  A    between atoms: _304  and  _306
REMARK  124  A    between atoms: _306  and  _307
REMARK  125  A    between atoms: _306  and  _309
REMARK  126  A    between atoms: _309  and  _310
REMARK  127  A    between atoms: _316  and  _318
REMARK  128  A    between atoms: _318  and  _319
REMARK  129  A    between atoms: _318  and  _321
REMARK  130  A    between atoms: _321  and  _322
REMARK  131  A    between atoms: _325  and  _327
REMARK  132  A    between atoms: _327  and  _328
REMARK  133  A    between atoms: _327  and  _330
REMARK  134  A    between atoms: _330  and  _331
REMARK  135  A    between atoms: _334  and  _336
REMARK  136  A    between atoms: _336  and  _337
REMARK  137  A    between atoms: _336  and  _339
REMARK  138  A    between atoms: _339  and  _340
REMARK  139  A    between atoms: _343  and  _345
REMARK  140  A    between atoms: _345  and  _346
REMARK  141  A    between atoms: _345  and  _348
REMARK  142  A    between atoms: _348  and  _349
REMARK  143  A    between atoms: _352  and  _354
REMARK  144  A    between atoms: _354  and  _355
REMARK  145  A    between atoms: _357  and  _359
REMARK  146  A    between atoms: _359  and  _360
REMARK  147  A    between atoms: _363  and  _365
REMARK  148  A    between atoms: _365  and  _366
REMARK  149  A    between atoms: _365  and  _368
REMARK  150  A    between atoms: _368  and  _369
REMARK  151  A    between atoms: _372  and  _374
REMARK  152  A    between atoms: _374  and  _375
REMARK  153  A    between atoms: _374  and  _377
REMARK  154  A    between atoms: _377  and  _378
REMARK  155  A    between atoms: _383  and  _385
REMARK  156  A    between atoms: _385  and  _386
REMARK  157  A    between atoms: _385  and  _388
REMARK  158  A    between atoms: _388  and  _389
REMARK  159  A    between atoms: _392  and  _394
REMARK  160  A    between atoms: _394  and  _395
REMARK  161  A    between atoms: _394  and  _397
REMARK  162  A    between atoms: _397  and  _398
REMARK  163  A    between atoms: _401  and  _403
REMARK  164  A    between atoms: _403  and  _404
REMARK  165  A    between atoms: _403  and  _406
REMARK  166  A    between atoms: _406  and  _407
REMARK  167  A    between atoms: _407  and  _408
REMARK  168  A    between atoms: _408  and  _409
REMARK  169  A    between atoms: _409  and  _410
REMARK  170  A    between atoms: _414  and  _416
REMARK  171  A    between atoms: _416  and  _417
REMARK  172  A    between atoms: _416  and  _419
REMARK  173  A    between atoms: _419  and  _420
REMARK  174  A    between atoms: _420  and  _421
REMARK  175  A    between atoms: _423  and  _425
REMARK  176  A    between atoms: _425  and  _426
REMARK  177  A    between atoms: _425  and  _428
REMARK  178  A    between atoms: _431  and  _433
REMARK  179  A    between atoms: _433  and  _434
REMARK  180  A    between atoms: _436  and  _438
REMARK  181  A    between atoms: _438  and  _439
REMARK  182  A    between atoms: _441  and  _443
REMARK  183  A    between atoms: _443  and  _444
REMARK  184  A    between atoms: _443  and  _446
REMARK  185  A    between atoms: _446  and  _447
REMARK  186  A    between atoms: _450  and  _452
REMARK  187  A    between atoms: _452  and  _453
REMARK  188  A    between atoms: _455  and  _457
REMARK  189  A    between atoms: _457  and  _458
REMARK  190  A    between atoms: _460  and  _462
REMARK  191  A    between atoms: _462  and  _463
REMARK  192  A    between atoms: _462  and  _465
REMARK  193  A    between atoms: _465  and  _466
REMARK  194  A    between atoms: _472  and  _474
REMARK  195  A    between atoms: _474  and  _475
REMARK  196  A    between atoms: _474  and  _477
REMARK  197  A    between atoms: _477  and  _478
REMARK  198  A    between atoms: _481  and  _483
REMARK  199  A    between atoms: _483  and  _484
REMARK  200  A    between atoms: _483  and  _486
REMARK  201  A    between atoms: _486  and  _487
REMARK  202  A    between atoms: _490  and  _492
REMARK  203  A    between atoms: _492  and  _493
REMARK  204  A    between atoms: _492  and  _495
REMARK  205  A    between atoms: _495  and  _496
REMARK  206  A    between atoms: _500  and  _501
REMARK  207  A    between atoms: _506  and  _508
REMARK  208  A    between atoms: _508  and  _509
REMARK  209  A    between atoms: _508  and  _511
REMARK  210  A    between atoms: _514  and  _516
REMARK  211  A    between atoms: _516  and  _517
REMARK  212  A    between atoms: _516  and  _519
REMARK  213  A    between atoms: _519  and  _520
REMARK  214  A    between atoms: _525  and  _527
REMARK  215  A    between atoms: _527  and  _528
REMARK  216  A    between atoms: _527  and  _530
REMARK  217  A    between atoms: _533  and  _535
REMARK  218  A    between atoms: _535  and  _536
REMARK  219  A    between atoms: _535  and  _538
REMARK  220  A    between atoms: _538  and  _539
REMARK  221  A    between atoms: _542  and  _544
REMARK  222  A    between atoms: _544  and  _545
REMARK  223  A    between atoms: _547  and  _549
REMARK  224  A    between atoms: _549  and  _550
REMARK  225  A    between atoms: _549  and  _552
REMARK  226  A    between atoms: _552  and  _553
REMARK  227  A    between atoms: _553  and  _554
REMARK  228  A    between atoms: _554  and  _555
REMARK  229  A    between atoms: _564  and  _566
REMARK  230  A    between atoms: _566  and  _567
REMARK  231  A    between atoms: _566  and  _569
REMARK  232  A    between atoms: _569  and  _570
REMARK                            x       y       z     vdW  Elec       q    Type
REMARK                         _______ _______ _______ _____ _____    ______ ____
ROOT
ATOM      1  O   HOH     1     -10.759 -10.350  -9.340  0.00  0.00    +0.000 OA
ENDROOT
TORSDOF 0
REMARK  Name = ../refined-set-2016/4ye3/4ye3_pocket.pdb
REMARK  232 active torsions:
REMARK  status: ('A' for Active; 'I' for Inactive)
REMARK    1  A    between atoms: _1  and  _3
REMARK    2  A    between atoms: _3  and  _4
REMARK    3  A    between atoms: _3  and  _6
REMARK    4  A    between atoms: _6  and  _7
REMARK    5  A    between atoms: _7  and  _8
REMARK    6  A    between atoms: _8  and  _9
REMARK    7  A    between atoms: _18  and  _20
REMARK    8  A    between atoms: _20  and  _21
REMARK    9  A    between atoms: _20  and  _23
REMARK   10  A    between atoms: _23  and  _24
REMARK   11  A    between atoms: _30  and  _32
REMARK   12  A    between atoms: _32  and  _33
REMARK   13  A    between atoms: _32  and  _35
REMARK   14  A    between atoms: _35  and  _36
REMARK   15  A    between atoms: _39  and  _41
REMARK   16  A    between atoms: _41  and  _42
REMARK   17  A    between atoms: _41  and  _44
REMARK   18  A    between atoms: _44  and  _45
REMARK   19  A    between atoms: _48  and  _50
REMARK   20  A    between atoms: _50  and  _51
REMARK   21  A    between atoms: _50  and  _53
REMARK   22  A    between atoms: _53  and  _54
REMARK   23  A    between atoms: _57  and  _59
REMARK   24  A    between atoms: _59  and  _60
REMARK   25  A    between atoms: _59  and  _62
REMARK   26  A    between atoms: _62  and  _63
REMARK   27  A    between atoms: _66  and  _68
REMARK   28  A    between atoms: _68  and  _69
REMARK   29  A    between atoms: _71  and  _73
REMARK   30  A    between atoms: _73  and  _74
REMARK   31  A    between atoms: _77  and  _79
REMARK   32  A    between atoms: _79  and  _80
REMARK   33  A    between atoms: _79  and  _82
REMARK   34  A    between atoms: _82  and  _83
REMARK   35  A    between atoms: _86  and  _88
REMARK   36  A    between atoms: _88  and  _89
REMARK   37  A    between atoms: _88  and  _91
REMARK   38  A    between atoms: _91  and  _92
REMARK   39  A    between atoms: _97  and  _99
REMARK   40  A    between atoms: _99  and  _100
REMARK   41  A    between atoms: _99  and  _102
REMARK   42  A    between atoms: _102  and  _103
REMARK   43  A    between atoms: _106  and  _108
REMARK   44  A    between atoms: _108  and  _109
REMARK   45  A    between atoms: _108  and  _111
REMARK   46  A    between atoms: _111  and  _112
REMARK   47  A    between atoms: _115  and  _117
REMARK   48  A    between atoms: _117  and  _118
REMARK   49  A    between atoms: _117  and  _120
REMARK   50  A    between atoms: _120  and  _121
REMARK   51  A    between atoms: _121  and  _122
REMARK   52  A    between atoms: _122  and  _123
REMARK   53  A    between atoms: _123  and  _124
REMARK   54  A    between atoms: _128  and  _130
REMARK   55  A    between atoms: _130  and  _131
REMARK   56  A    between atoms: _130  and  _133
REMARK   57  A    between atoms: _133  and  _134
REMARK   58  A    between atoms: _134  and  _135
REMARK   59  A    between atoms: _137  and  _139
REMARK   60  A    between atoms: _139  and  _140
REMARK   61  A    between atoms: _139  and  _142
REMARK   62  A    between atoms: _145  and  _147
REMARK   63  A    between atoms: _147  and  _148
REMARK   64  A    between atoms: _150  and  _152
REMARK   65  A    between atoms: _152  and  _153
REMARK   66  A    between atoms: _155  and  _157
REMARK   67  A    between atoms: _157  and  _158
REMARK   68  A    between atoms: _157  and  _160
REMARK   69  A    between atoms: _160  and  _161
REMARK   70  A    between atoms: _164  and  _166
REMARK   71  A    between atoms: _166  and  _167
REMARK   72  A    between atoms: _169  and  _171
REMARK   73  A    between atoms: _171  and  _172
REMARK   74  A    between atoms: _174  and  _176
REMARK   75  A    between atoms: _176  and  _177
REMARK   76  A    between atoms: _176  and  _179
REMARK   77  A    between atoms: _179  and  _180
REMARK   78  A    between atoms: _186  and  _188
REMARK   79  A    between atoms: _188  and  _189
REMARK   80  A    between atoms: _188  and  _191
REMARK   81  A    between atoms: _191  and  _192
REMARK   82  A    between atoms: _195  and  _197
REMARK   83  A    between atoms: _197  and  _198
REMARK   84  A    between atoms: _197  and  _200
REMARK   85  A    between atoms: _200  and  _201
REMARK   86  A    between atoms: _204  and  _206
REMARK   87  A    between atoms: _206  and  _207
REMARK   88  A    between atoms: _206  and  _209
REMARK   89  A    between atoms: _209  and  _210
REMARK   90  A    between atoms: _214  and  _215
REMARK   91  A    between atoms: _220  and  _222
REMARK   92  A    between atoms: _222  and  _223
REMARK   93  A    between atoms: _222  and  _225
REMARK   94  A    between atoms: _228  and  _230
REMARK   95  A    between atoms: _230  and  _231
REMARK   96  A    between atoms: _230  and  _233
REMARK   97  A    between atoms: _233  and  _234
REMARK   98  A    between atoms: _239  and  _241
REMARK   99  A    between atoms: _241  and  _242
REMARK  100  A    between atoms: _241  and  _244
REMARK  101  A    between atoms: _247  and  _249
REMARK  102  A    between atoms: _249  and  _250
REMARK  103  A    between atoms: _249  and  _252
REMARK  104  A    between atoms: _252  and  _253
REMARK  105  A    between atoms: _256  and  _258
REMARK  106  A    between atoms: _258  and  _259
REMARK  107  A    between atoms: _261  and  _263
REMARK  108  A    between atoms: _263  and  _264
REMARK  109  A    between atoms: _263  and  _266
REMARK  110  A    between atoms: _266  and  _267
REMARK  111  A    between atoms: _267  and  _268
REMARK  112  A    between atoms: _268  and  _269
REMARK  113  A    between atoms: _278  and  _280
REMARK  114  A    between atoms: _280  and  _281
REMARK  115  A    between atoms: _280  and  _283
REMARK  116  A    between atoms: _283  and  _284
REMARK  117  A    between atoms: _287  and  _289
REMARK  118  A    between atoms: _289  and  _290
REMARK  119  A    between atoms: _289  and  _292
REMARK  120  A    between atoms: _292  and  _293
REMARK  121  A    between atoms: _293  and  _294
REMARK  122  A    between atoms: _294  and  _295
REMARK  123  A    between atoms: _304  and  _306
REMARK  124  A    between atoms: _306  and  _307
REMARK  125  A    between atoms: _306  and  _309
REMARK  126  A    between atoms: _309  and  _310
REMARK  127  A    between atoms: _316  and  _318
REMARK  128  A    between atoms: _318  and  _319
REMARK  129  A    between atoms: _318  and  _321
REMARK  130  A    between atoms: _321  and  _322
REMARK  131  A    between atoms: _325  and  _327
REMARK  132  A    between atoms: _327  and  _328
REMARK  133  A    between atoms: _327  and  _330
REMARK  134  A    between atoms: _330  and  _331
REMARK  135  A    between atoms: _334  and  _336
REMARK  136  A    between atoms: _336  and  _337
REMARK  137  A    between atoms: _336  and  _339
REMARK  138  A    between atoms: _339  and  _340
REMARK  139  A    between atoms: _343  and  _345
REMARK  140  A    between atoms: _345  and  _346
REMARK  141  A    between atoms: _345  and  _348
REMARK  142  A    between atoms: _348  and  _349
REMARK  143  A    between atoms: _352  and  _354
REMARK  144  A    between atoms: _354  and  _355
REMARK  145  A    between atoms: _357  and  _359
REMARK  146  A    between atoms: _359  and  _360
REMARK  147  A    between atoms: _363  and  _365
REMARK  148  A    between atoms: _365  and  _366
REMARK  149  A    between atoms: _365  and  _368
REMARK  150  A    between atoms: _368  and  _369
REMARK  151  A    between atoms: _372  and  _374
REMARK  152  A    between atoms: _374  and  _375
REMARK  153  A    between atoms: _374  and  _377
REMARK  154  A    between atoms: _377  and  _378
REMARK  155  A    between atoms: _383  and  _385
REMARK  156  A    between atoms: _385  and  _386
REMARK  157  A    between atoms: _385  and  _388
REMARK  158  A    between atoms: _388  and  _389
REMARK  159  A    between atoms: _392  and  _394
REMARK  160  A    between atoms: _394  and  _395
REMARK  161  A    between atoms: _394  and  _397
REMARK  162  A    between atoms: _397  and  _398
REMARK  163  A    between atoms: _401  and  _403
REMARK  164  A    between atoms: _403  and  _404
REMARK  165  A    between atoms: _403  and  _406
REMARK  166  A    between atoms: _406  and  _407
REMARK  167  A    between atoms: _407  and  _408
REMARK  168  A    between atoms: _408  and  _409
REMARK  169  A    between atoms: _409  and  _410
REMARK  170  A    between atoms: _414  and  _416
REMARK  171  A    between atoms: _416  and  _417
REMARK  172  A    between atoms: _416  and  _419
REMARK  173  A    between atoms: _419  and  _420
REMARK  174  A    between atoms: _420  and  _421
REMARK  175  A    between atoms: _423  and  _425
REMARK  176  A    between atoms: _425  and  _426
REMARK  177  A    between atoms: _425  and  _428
REMARK  178  A    between atoms: _431  and  _433
REMARK  179  A    between atoms: _433  and  _434
REMARK  180  A    between atoms: _436  and  _438
REMARK  181  A    between atoms: _438  and  _439
REMARK  182  A    between atoms: _441  and  _443
REMARK  183  A    between atoms: _443  and  _444
REMARK  184  A    between atoms: _443  and  _446
REMARK  185  A    between atoms: _446  and  _447
REMARK  186  A    between atoms: _450  and  _452
REMARK  187  A    between atoms: _452  and  _453
REMARK  188  A    between atoms: _455  and  _457
REMARK  189  A    between atoms: _457  and  _458
REMARK  190  A    between atoms: _460  and  _462
REMARK  191  A    between atoms: _462  and  _463
REMARK  192  A    between atoms: _462  and  _465
REMARK  193  A    between atoms: _465  and  _466
REMARK  194  A    between atoms: _472  and  _474
REMARK  195  A    between atoms: _474  and  _475
REMARK  196  A    between atoms: _474  and  _477
REMARK  197  A    between atoms: _477  and  _478
REMARK  198  A    between atoms: _481  and  _483
REMARK  199  A    between atoms: _483  and  _484
REMARK  200  A    between atoms: _483  and  _486
REMARK  201  A    between atoms: _486  and  _487
REMARK  202  A    between atoms: _490  and  _492
REMARK  203  A    between atoms: _492  and  _493
REMARK  204  A    between atoms: _492  and  _495
REMARK  205  A    between atoms: _495  and  _496
REMARK  206  A    between atoms: _500  and  _501
REMARK  207  A    between atoms: _506  and  _508
REMARK  208  A    between atoms: _508  and  _509
REMARK  209  A    between atoms: _508  and  _511
REMARK  210  A    between atoms: _514  and  _516
REMARK  211  A    between atoms: _516  and  _517
REMARK  212  A    between atoms: _516  and  _519
REMARK  213  A    between atoms: _519  and  _520
REMARK  214  A    between atoms: _525  and  _527
REMARK  215  A    between atoms: _527  and  _528
REMARK  216  A    between atoms: _527  and  _530
REMARK  217  A    between atoms: _533  and  _535
REMARK  218  A    between atoms: _535  and  _536
REMARK  219  A    between atoms: _535  and  _538
REMARK  220  A    between atoms: _538  and  _539
REMARK  221  A    between atoms: _542  and  _544
REMARK  222  A    between atoms: _544  and  _545
REMARK  223  A    between atoms: _547  and  _549
REMARK  224  A    between atoms: _549  and  _550
REMARK  225  A    between atoms: _549  and  _552
REMARK  226  A    between atoms: _552  and  _553
REMARK  227  A    between atoms: _553  and  _554
REMARK  228  A    between atoms: _554  and  _555
REMARK  229  A    between atoms: _564  and  _566
REMARK  230  A    between atoms: _566  and  _567
REMARK  231  A    between atoms: _566  and  _569
REMARK  232  A    between atoms: _569  and  _570
REMARK                            x       y       z     vdW  Elec       q    Type
REMARK                         _______ _______ _______ _____ _____    ______ ____
ROOT
ATOM      1  O   HOH     1     -12.254 -16.243  11.747  0.00  0.00    +0.000 OA
ENDROOT
TORSDOF 0
REMARK  Name = ../refined-set-2016/4ye3/4ye3_pocket.pdb
REMARK  232 active torsions:
REMARK  status: ('A' for Active; 'I' for Inactive)
REMARK    1  A    between atoms: _1  and  _3
REMARK    2  A    between atoms: _3  and  _4
REMARK    3  A    between atoms: _3  and  _6
REMARK    4  A    between atoms: _6  and  _7
REMARK    5  A    between atoms: _7  and  _8
REMARK    6  A    between atoms: _8  and  _9
REMARK    7  A    between atoms: _18  and  _20
REMARK    8  A    between atoms: _20  and  _21
REMARK    9  A    between atoms: _20  and  _23
REMARK   10  A    between atoms: _23  and  _24
REMARK   11  A    between atoms: _30  and  _32
REMARK   12  A    between atoms: _32  and  _33
REMARK   13  A    between atoms: _32  and  _35
REMARK   14  A    between atoms: _35  and  _36
REMARK   15  A    between atoms: _39  and  _41
REMARK   16  A    between atoms: _41  and  _42
REMARK   17  A    between atoms: _41  and  _44
REMARK   18  A    between atoms: _44  and  _45
REMARK   19  A    between atoms: _48  and  _50
REMARK   20  A    between atoms: _50  and  _51
REMARK   21  A    between atoms: _50  and  _53
REMARK   22  A    between atoms: _53  and  _54
REMARK   23  A    between atoms: _57  and  _59
REMARK   24  A    between atoms: _59  and  _60
REMARK   25  A    between atoms: _59  and  _62
REMARK   26  A    between atoms: _62  and  _63
REMARK   27  A    between atoms: _66  and  _68
REMARK   28  A    between atoms: _68  and  _69
REMARK   29  A    between atoms: _71  and  _73
REMARK   30  A    between atoms: _73  and  _74
REMARK   31  A    between atoms: _77  and  _79
REMARK   32  A    between atoms: _79  and  _80
REMARK   33  A    between atoms: _79  and  _82
REMARK   34  A    between atoms: _82  and  _83
REMARK   35  A    between atoms: _86  and  _88
REMARK   36  A    between atoms: _88  and  _89
REMARK   37  A    between atoms: _88  and  _91
REMARK   38  A    between atoms: _91  and  _92
REMARK   39  A    between atoms: _97  and  _99
REMARK   40  A    between atoms: _99  and  _100
REMARK   41  A    between atoms: _99  and  _102
REMARK   42  A    between atoms: _102  and  _103
REMARK   43  A    between atoms: _106  and  _108
REMARK   44  A    between atoms: _108  and  _109
REMARK   45  A    between atoms: _108  and  _111
REMARK   46  A    between atoms: _111  and  _112
REMARK   47  A    between atoms: _115  and  _117
REMARK   48  A    between atoms: _117  and  _118
REMARK   49  A    between atoms: _117  and  _120
REMARK   50  A    between atoms: _120  and  _121
REMARK   51  A    between atoms: _121  and  _122
REMARK   52  A    between atoms: _122  and  _123
REMARK   53  A    between atoms: _123  and  _124
REMARK   54  A    between atoms: _128  and  _130
REMARK   55  A    between atoms: _130  and  _131
REMARK   56  A    between atoms: _130  and  _133
REMARK   57  A    between atoms: _133  and  _134
REMARK   58  A    between atoms: _134  and  _135
REMARK   59  A    between atoms: _137  and  _139
REMARK   60  A    between atoms: _139  and  _140
REMARK   61  A    between atoms: _139  and  _142
REMARK   62  A    between atoms: _145  and  _147
REMARK   63  A    between atoms: _147  and  _148
REMARK   64  A    between atoms: _150  and  _152
REMARK   65  A    between atoms: _152  and  _153
REMARK   66  A    between atoms: _155  and  _157
REMARK   67  A    between atoms: _157  and  _158
REMARK   68  A    between atoms: _157  and  _160
REMARK   69  A    between atoms: _160  and  _161
REMARK   70  A    between atoms: _164  and  _166
REMARK   71  A    between atoms: _166  and  _167
REMARK   72  A    between atoms: _169  and  _171
REMARK   73  A    between atoms: _171  and  _172
REMARK   74  A    between atoms: _174  and  _176
REMARK   75  A    between atoms: _176  and  _177
REMARK   76  A    between atoms: _176  and  _179
REMARK   77  A    between atoms: _179  and  _180
REMARK   78  A    between atoms: _186  and  _188
REMARK   79  A    between atoms: _188  and  _189
REMARK   80  A    between atoms: _188  and  _191
REMARK   81  A    between atoms: _191  and  _192
REMARK   82  A    between atoms: _195  and  _197
REMARK   83  A    between atoms: _197  and  _198
REMARK   84  A    between atoms: _197  and  _200
REMARK   85  A    between atoms: _200  and  _201
REMARK   86  A    between atoms: _204  and  _206
REMARK   87  A    between atoms: _206  and  _207
REMARK   88  A    between atoms: _206  and  _209
REMARK   89  A    between atoms: _209  and  _210
REMARK   90  A    between atoms: _214  and  _215
REMARK   91  A    between atoms: _220  and  _222
REMARK   92  A    between atoms: _222  and  _223
REMARK   93  A    between atoms: _222  and  _225
REMARK   94  A    between atoms: _228  and  _230
REMARK   95  A    between atoms: _230  and  _231
REMARK   96  A    between atoms: _230  and  _233
REMARK   97  A    between atoms: _233  and  _234
REMARK   98  A    between atoms: _239  and  _241
REMARK   99  A    between atoms: _241  and  _242
REMARK  100  A    between atoms: _241  and  _244
REMARK  101  A    between atoms: _247  and  _249
REMARK  102  A    between atoms: _249  and  _250
REMARK  103  A    between atoms: _249  and  _252
REMARK  104  A    between atoms: _252  and  _253
REMARK  105  A    between atoms: _256  and  _258
REMARK  106  A    between atoms: _258  and  _259
REMARK  107  A    between atoms: _261  and  _263
REMARK  108  A    between atoms: _263  and  _264
REMARK  109  A    between atoms: _263  and  _266
REMARK  110  A    between atoms: _266  and  _267
REMARK  111  A    between atoms: _267  and  _268
REMARK  112  A    between atoms: _268  and  _269
REMARK  113  A    between atoms: _278  and  _280
REMARK  114  A    between atoms: _280  and  _281
REMARK  115  A    between atoms: _280  and  _283
REMARK  116  A    between atoms: _283  and  _284
REMARK  117  A    between atoms: _287  and  _289
REMARK  118  A    between atoms: _289  and  _290
REMARK  119  A    between atoms: _289  and  _292
REMARK  120  A    between atoms: _292  and  _293
REMARK  121  A    between atoms: _293  and  _294
REMARK  122  A    between atoms: _294  and  _295
REMARK  123  A    between atoms: _304  and  _306
REMARK  124  A    between atoms: _306  and  _307
REMARK  125  A    between atoms: _306  and  _309
REMARK  126  A    between atoms: _309  and  _310
REMARK  127  A    between atoms: _316  and  _318
REMARK  128  A    between atoms: _318  and  _319
REMARK  129  A    between atoms: _318  and  _321
REMARK  130  A    between atoms: _321  and  _322
REMARK  131  A    between atoms: _325  and  _327
REMARK  132  A    between atoms: _327  and  _328
REMARK  133  A    between atoms: _327  and  _330
REMARK  134  A    between atoms: _330  and  _331
REMARK  135  A    between atoms: _334  and  _336
REMARK  136  A    between atoms: _336  and  _337
REMARK  137  A    between atoms: _336  and  _339
REMARK  138  A    between atoms: _339  and  _340
REMARK  139  A    between atoms: _343  and  _345
REMARK  140  A    between atoms: _345  and  _346
REMARK  141  A    between atoms: _345  and  _348
REMARK  142  A    between atoms: _348  and  _349
REMARK  143  A    between atoms: _352  and  _354
REMARK  144  A    between atoms: _354  and  _355
REMARK  145  A    between atoms: _357  and  _359
REMARK  146  A    between atoms: _359  and  _360
REMARK  147  A    between atoms: _363  and  _365
REMARK  148  A    between atoms: _365  and  _366
REMARK  149  A    between atoms: _365  and  _368
REMARK  150  A    between atoms: _368  and  _369
REMARK  151  A    between atoms: _372  and  _374
REMARK  152  A    between atoms: _374  and  _375
REMARK  153  A    between atoms: _374  and  _377
REMARK  154  A    between atoms: _377  and  _378
REMARK  155  A    between atoms: _383  and  _385
REMARK  156  A    between atoms: _385  and  _386
REMARK  157  A    between atoms: _385  and  _388
REMARK  158  A    between atoms: _388  and  _389
REMARK  159  A    between atoms: _392  and  _394
REMARK  160  A    between atoms: _394  and  _395
REMARK  161  A    between atoms: _394  and  _397
REMARK  162  A    between atoms: _397  and  _398
REMARK  163  A    between atoms: _401  and  _403
REMARK  164  A    between atoms: _403  and  _404
REMARK  165  A    between atoms: _403  and  _406
REMARK  166  A    between atoms: _406  and  _407
REMARK  167  A    between atoms: _407  and  _408
REMARK  168  A    between atoms: _408  and  _409
REMARK  169  A    between atoms: _409  and  _410
REMARK  170  A    between atoms: _414  and  _416
REMARK  171  A    between atoms: _416  and  _417
REMARK  172  A    between atoms: _416  and  _419
REMARK  173  A    between atoms: _419  and  _420
REMARK  174  A    between atoms: _420  and  _421
REMARK  175  A    between atoms: _423  and  _425
REMARK  176  A    between atoms: _425  and  _426
REMARK  177  A    between atoms: _425  and  _428
REMARK  178  A    between atoms: _431  and  _433
REMARK  179  A    between atoms: _433  and  _434
REMARK  180  A    between atoms: _436  and  _438
REMARK  181  A    between atoms: _438  and  _439
REMARK  182  A    between atoms: _441  and  _443
REMARK  183  A    between atoms: _443  and  _444
REMARK  184  A    between atoms: _443  and  _446
REMARK  185  A    between atoms: _446  and  _447
REMARK  186  A    between atoms: _450  and  _452
REMARK  187  A    between atoms: _452  and  _453
REMARK  188  A    between atoms: _455  and  _457
REMARK  189  A    between atoms: _457  and  _458
REMARK  190  A    between atoms: _460  and  _462
REMARK  191  A    between atoms: _462  and  _463
REMARK  192  A    between atoms: _462  and  _465
REMARK  193  A    between atoms: _465  and  _466
REMARK  194  A    between atoms: _472  and  _474
REMARK  195  A    between atoms: _474  and  _475
REMARK  196  A    between atoms: _474  and  _477
REMARK  197  A    between atoms: _477  and  _478
REMARK  198  A    between atoms: _481  and  _483
REMARK  199  A    between atoms: _483  and  _484
REMARK  200  A    between atoms: _483  and  _486
REMARK  201  A    between atoms: _486  and  _487
REMARK  202  A    between atoms: _490  and  _492
REMARK  203  A    between atoms: _492  and  _493
REMARK  204  A    between atoms: _492  and  _495
REMARK  205  A    between atoms: _495  and  _496
REMARK  206  A    between atoms: _500  and  _501
REMARK  207  A    between atoms: _506  and  _508
REMARK  208  A    between atoms: _508  and  _509
REMARK  209  A    between atoms: _508  and  _511
REMARK  210  A    between atoms: _514  and  _516
REMARK  211  A    between atoms: _516  and  _517
REMARK  212  A    between atoms: _516  and  _519
REMARK  213  A    between atoms: _519  and  _520
REMARK  214  A    between atoms: _525  and  _527
REMARK  215  A    between atoms: _527  and  _528
REMARK  216  A    between atoms: _527  and  _530
REMARK  217  A    between atoms: _533  and  _535
REMARK  218  A    between atoms: _535  and  _536
REMARK  219  A    between atoms: _535  and  _538
REMARK  220  A    between atoms: _538  and  _539
REMARK  221  A    between atoms: _542  and  _544
REMARK  222  A    between atoms: _544  and  _545
REMARK  223  A    between atoms: _547  and  _549
REMARK  224  A    between atoms: _549  and  _550
REMARK  225  A    between atoms: _549  and  _552
REMARK  226  A    between atoms: _552  and  _553
REMARK  227  A    between atoms: _553  and  _554
REMARK  228  A    between atoms: _554  and  _555
REMARK  229  A    between atoms: _564  and  _566
REMARK  230  A    between atoms: _566  and  _567
REMARK  231  A    between atoms: _566  and  _569
REMARK  232  A    between atoms: _569  and  _570
REMARK                            x       y       z     vdW  Elec       q    Type
REMARK                         _______ _______ _______ _____ _____    ______ ____
ROOT
ATOM      1  O   HOH     1      -3.608 -14.422   6.561  0.00  0.00    +0.000 OA
ENDROOT
TORSDOF 0
REMARK  Name = ../refined-set-2016/4ye3/4ye3_pocket.pdb
REMARK  232 active torsions:
REMARK  status: ('A' for Active; 'I' for Inactive)
REMARK    1  A    between atoms: _1  and  _3
REMARK    2  A    between atoms: _3  and  _4
REMARK    3  A    between atoms: _3  and  _6
REMARK    4  A    between atoms: _6  and  _7
REMARK    5  A    between atoms: _7  and  _8
REMARK    6  A    between atoms: _8  and  _9
REMARK    7  A    between atoms: _18  and  _20
REMARK    8  A    between atoms: _20  and  _21
REMARK    9  A    between atoms: _20  and  _23
REMARK   10  A    between atoms: _23  and  _24
REMARK   11  A    between atoms: _30  and  _32
REMARK   12  A    between atoms: _32  and  _33
REMARK   13  A    between atoms: _32  and  _35
REMARK   14  A    between atoms: _35  and  _36
REMARK   15  A    between atoms: _39  and  _41
REMARK   16  A    between atoms: _41  and  _42
REMARK   17  A    between atoms: _41  and  _44
REMARK   18  A    between atoms: _44  and  _45
REMARK   19  A    between atoms: _48  and  _50
REMARK   20  A    between atoms: _50  and  _51
REMARK   21  A    between atoms: _50  and  _53
REMARK   22  A    between atoms: _53  and  _54
REMARK   23  A    between atoms: _57  and  _59
REMARK   24  A    between atoms: _59  and  _60
REMARK   25  A    between atoms: _59  and  _62
REMARK   26  A    between atoms: _62  and  _63
REMARK   27  A    between atoms: _66  and  _68
REMARK   28  A    between atoms: _68  and  _69
REMARK   29  A    between atoms: _71  and  _73
REMARK   30  A    between atoms: _73  and  _74
REMARK   31  A    between atoms: _77  and  _79
REMARK   32  A    between atoms: _79  and  _80
REMARK   33  A    between atoms: _79  and  _82
REMARK   34  A    between atoms: _82  and  _83
REMARK   35  A    between atoms: _86  and  _88
REMARK   36  A    between atoms: _88  and  _89
REMARK   37  A    between atoms: _88  and  _91
REMARK   38  A    between atoms: _91  and  _92
REMARK   39  A    between atoms: _97  and  _99
REMARK   40  A    between atoms: _99  and  _100
REMARK   41  A    between atoms: _99  and  _102
REMARK   42  A    between atoms: _102  and  _103
REMARK   43  A    between atoms: _106  and  _108
REMARK   44  A    between atoms: _108  and  _109
REMARK   45  A    between atoms: _108  and  _111
REMARK   46  A    between atoms: _111  and  _112
REMARK   47  A    between atoms: _115  and  _117
REMARK   48  A    between atoms: _117  and  _118
REMARK   49  A    between atoms: _117  and  _120
REMARK   50  A    between atoms: _120  and  _121
REMARK   51  A    between atoms: _121  and  _122
REMARK   52  A    between atoms: _122  and  _123
REMARK   53  A    between atoms: _123  and  _124
REMARK   54  A    between atoms: _128  and  _130
REMARK   55  A    between atoms: _130  and  _131
REMARK   56  A    between atoms: _130  and  _133
REMARK   57  A    between atoms: _133  and  _134
REMARK   58  A    between atoms: _134  and  _135
REMARK   59  A    between atoms: _137  and  _139
REMARK   60  A    between atoms: _139  and  _140
REMARK   61  A    between atoms: _139  and  _142
REMARK   62  A    between atoms: _145  and  _147
REMARK   63  A    between atoms: _147  and  _148
REMARK   64  A    between atoms: _150  and  _152
REMARK   65  A    between atoms: _152  and  _153
REMARK   66  A    between atoms: _155  and  _157
REMARK   67  A    between atoms: _157  and  _158
REMARK   68  A    between atoms: _157  and  _160
REMARK   69  A    between atoms: _160  and  _161
REMARK   70  A    between atoms: _164  and  _166
REMARK   71  A    between atoms: _166  and  _167
REMARK   72  A    between atoms: _169  and  _171
REMARK   73  A    between atoms: _171  and  _172
REMARK   74  A    between atoms: _174  and  _176
REMARK   75  A    between atoms: _176  and  _177
REMARK   76  A    between atoms: _176  and  _179
REMARK   77  A    between atoms: _179  and  _180
REMARK   78  A    between atoms: _186  and  _188
REMARK   79  A    between atoms: _188  and  _189
REMARK   80  A    between atoms: _188  and  _191
REMARK   81  A    between atoms: _191  and  _192
REMARK   82  A    between atoms: _195  and  _197
REMARK   83  A    between atoms: _197  and  _198
REMARK   84  A    between atoms: _197  and  _200
REMARK   85  A    between atoms: _200  and  _201
REMARK   86  A    between atoms: _204  and  _206
REMARK   87  A    between atoms: _206  and  _207
REMARK   88  A    between atoms: _206  and  _209
REMARK   89  A    between atoms: _209  and  _210
REMARK   90  A    between atoms: _214  and  _215
REMARK   91  A    between atoms: _220  and  _222
REMARK   92  A    between atoms: _222  and  _223
REMARK   93  A    between atoms: _222  and  _225
REMARK   94  A    between atoms: _228  and  _230
REMARK   95  A    between atoms: _230  and  _231
REMARK   96  A    between atoms: _230  and  _233
REMARK   97  A    between atoms: _233  and  _234
REMARK   98  A    between atoms: _239  and  _241
REMARK   99  A    between atoms: _241  and  _242
REMARK  100  A    between atoms: _241  and  _244
REMARK  101  A    between atoms: _247  and  _249
REMARK  102  A    between atoms: _249  and  _250
REMARK  103  A    between atoms: _249  and  _252
REMARK  104  A    between atoms: _252  and  _253
REMARK  105  A    between atoms: _256  and  _258
REMARK  106  A    between atoms: _258  and  _259
REMARK  107  A    between atoms: _261  and  _263
REMARK  108  A    between atoms: _263  and  _264
REMARK  109  A    between atoms: _263  and  _266
REMARK  110  A    between atoms: _266  and  _267
REMARK  111  A    between atoms: _267  and  _268
REMARK  112  A    between atoms: _268  and  _269
REMARK  113  A    between atoms: _278  and  _280
REMARK  114  A    between atoms: _280  and  _281
REMARK  115  A    between atoms: _280  and  _283
REMARK  116  A    between atoms: _283  and  _284
REMARK  117  A    between atoms: _287  and  _289
REMARK  118  A    between atoms: _289  and  _290
REMARK  119  A    between atoms: _289  and  _292
REMARK  120  A    between atoms: _292  and  _293
REMARK  121  A    between atoms: _293  and  _294
REMARK  122  A    between atoms: _294  and  _295
REMARK  123  A    between atoms: _304  and  _306
REMARK  124  A    between atoms: _306  and  _307
REMARK  125  A    between atoms: _306  and  _309
REMARK  126  A    between atoms: _309  and  _310
REMARK  127  A    between atoms: _316  and  _318
REMARK  128  A    between atoms: _318  and  _319
REMARK  129  A    between atoms: _318  and  _321
REMARK  130  A    between atoms: _321  and  _322
REMARK  131  A    between atoms: _325  and  _327
REMARK  132  A    between atoms: _327  and  _328
REMARK  133  A    between atoms: _327  and  _330
REMARK  134  A    between atoms: _330  and  _331
REMARK  135  A    between atoms: _334  and  _336
REMARK  136  A    between atoms: _336  and  _337
REMARK  137  A    between atoms: _336  and  _339
REMARK  138  A    between atoms: _339  and  _340
REMARK  139  A    between atoms: _343  and  _345
REMARK  140  A    between atoms: _345  and  _346
REMARK  141  A    between atoms: _345  and  _348
REMARK  142  A    between atoms: _348  and  _349
REMARK  143  A    between atoms: _352  and  _354
REMARK  144  A    between atoms: _354  and  _355
REMARK  145  A    between atoms: _357  and  _359
REMARK  146  A    between atoms: _359  and  _360
REMARK  147  A    between atoms: _363  and  _365
REMARK  148  A    between atoms: _365  and  _366
REMARK  149  A    between atoms: _365  and  _368
REMARK  150  A    between atoms: _368  and  _369
REMARK  151  A    between atoms: _372  and  _374
REMARK  152  A    between atoms: _374  and  _375
REMARK  153  A    between atoms: _374  and  _377
REMARK  154  A    between atoms: _377  and  _378
REMARK  155  A    between atoms: _383  and  _385
REMARK  156  A    between atoms: _385  and  _386
REMARK  157  A    between atoms: _385  and  _388
REMARK  158  A    between atoms: _388  and  _389
REMARK  159  A    between atoms: _392  and  _394
REMARK  160  A    between atoms: _394  and  _395
REMARK  161  A    between atoms: _394  and  _397
REMARK  162  A    between atoms: _397  and  _398
REMARK  163  A    between atoms: _401  and  _403
REMARK  164  A    between atoms: _403  and  _404
REMARK  165  A    between atoms: _403  and  _406
REMARK  166  A    between atoms: _406  and  _407
REMARK  167  A    between atoms: _407  and  _408
REMARK  168  A    between atoms: _408  and  _409
REMARK  169  A    between atoms: _409  and  _410
REMARK  170  A    between atoms: _414  and  _416
REMARK  171  A    between atoms: _416  and  _417
REMARK  172  A    between atoms: _416  and  _419
REMARK  173  A    between atoms: _419  and  _420
REMARK  174  A    between atoms: _420  and  _421
REMARK  175  A    between atoms: _423  and  _425
REMARK  176  A    between atoms: _425  and  _426
REMARK  177  A    between atoms: _425  and  _428
REMARK  178  A    between atoms: _431  and  _433
REMARK  179  A    between atoms: _433  and  _434
REMARK  180  A    between atoms: _436  and  _438
REMARK  181  A    between atoms: _438  and  _439
REMARK  182  A    between atoms: _441  and  _443
REMARK  183  A    between atoms: _443  and  _444
REMARK  184  A    between atoms: _443  and  _446
REMARK  185  A    between atoms: _446  and  _447
REMARK  186  A    between atoms: _450  and  _452
REMARK  187  A    between atoms: _452  and  _453
REMARK  188  A    between atoms: _455  and  _457
REMARK  189  A    between atoms: _457  and  _458
REMARK  190  A    between atoms: _460  and  _462
REMARK  191  A    between atoms: _462  and  _463
REMARK  192  A    between atoms: _462  and  _465
REMARK  193  A    between atoms: _465  and  _466
REMARK  194  A    between atoms: _472  and  _474
REMARK  195  A    between atoms: _474  and  _475
REMARK  196  A    between atoms: _474  and  _477
REMARK  197  A    between atoms: _477  and  _478
REMARK  198  A    between atoms: _481  and  _483
REMARK  199  A    between atoms: _483  and  _484
REMARK  200  A    between atoms: _483  and  _486
REMARK  201  A    between atoms: _486  and  _487
REMARK  202  A    between atoms: _490  and  _492
REMARK  203  A    between atoms: _492  and  _493
REMARK  204  A    between atoms: _492  and  _495
REMARK  205  A    between atoms: _495  and  _496
REMARK  206  A    between atoms: _500  and  _501
REMARK  207  A    between atoms: _506  and  _508
REMARK  208  A    between atoms: _508  and  _509
REMARK  209  A    between atoms: _508  and  _511
REMARK  210  A    between atoms: _514  and  _516
REMARK  211  A    between atoms: _516  and  _517
REMARK  212  A    between atoms: _516  and  _519
REMARK  213  A    between atoms: _519  and  _520
REMARK  214  A    between atoms: _525  and  _527
REMARK  215  A    between atoms: _527  and  _528
REMARK  216  A    between atoms: _527  and  _530
REMARK  217  A    between atoms: _533  and  _535
REMARK  218  A    between atoms: _535  and  _536
REMARK  219  A    between atoms: _535  and  _538
REMARK  220  A    between atoms: _538  and  _539
REMARK  221  A    between atoms: _542  and  _544
REMARK  222  A    between atoms: _544  and  _545
REMARK  223  A    between atoms: _547  and  _549
REMARK  224  A    between atoms: _549  and  _550
REMARK  225  A    between atoms: _549  and  _552
REMARK  226  A    between atoms: _552  and  _553
REMARK  227  A    between atoms: _553  and  _554
REMARK  228  A    between atoms: _554  and  _555
REMARK  229  A    between atoms: _564  and  _566
REMARK  230  A    between atoms: _566  and  _567
REMARK  231  A    between atoms: _566  and  _569
REMARK  232  A    between atoms: _569  and  _570
REMARK                            x       y       z     vdW  Elec       q    Type
REMARK                         _______ _______ _______ _____ _____    ______ ____
ROOT
ATOM      1  O   HOH     1      -1.180 -11.682  -4.327  0.00  0.00    +0.000 OA
ENDROOT
TORSDOF 0
REMARK  Name = ../refined-set-2016/4ye3/4ye3_pocket.pdb
REMARK  232 active torsions:
REMARK  status: ('A' for Active; 'I' for Inactive)
REMARK    1  A    between atoms: _1  and  _3
REMARK    2  A    between atoms: _3  and  _4
REMARK    3  A    between atoms: _3  and  _6
REMARK    4  A    between atoms: _6  and  _7
REMARK    5  A    between atoms: _7  and  _8
REMARK    6  A    between atoms: _8  and  _9
REMARK    7  A    between atoms: _18  and  _20
REMARK    8  A    between atoms: _20  and  _21
REMARK    9  A    between atoms: _20  and  _23
REMARK   10  A    between atoms: _23  and  _24
REMARK   11  A    between atoms: _30  and  _32
REMARK   12  A    between atoms: _32  and  _33
REMARK   13  A    between atoms: _32  and  _35
REMARK   14  A    between atoms: _35  and  _36
REMARK   15  A    between atoms: _39  and  _41
REMARK   16  A    between atoms: _41  and  _42
REMARK   17  A    between atoms: _41  and  _44
REMARK   18  A    between atoms: _44  and  _45
REMARK   19  A    between atoms: _48  and  _50
REMARK   20  A    between atoms: _50  and  _51
REMARK   21  A    between atoms: _50  and  _53
REMARK   22  A    between atoms: _53  and  _54
REMARK   23  A    between atoms: _57  and  _59
REMARK   24  A    between atoms: _59  and  _60
REMARK   25  A    between atoms: _59  and  _62
REMARK   26  A    between atoms: _62  and  _63
REMARK   27  A    between atoms: _66  and  _68
REMARK   28  A    between atoms: _68  and  _69
REMARK   29  A    between atoms: _71  and  _73
REMARK   30  A    between atoms: _73  and  _74
REMARK   31  A    between atoms: _77  and  _79
REMARK   32  A    between atoms: _79  and  _80
REMARK   33  A    between atoms: _79  and  _82
REMARK   34  A    between atoms: _82  and  _83
REMARK   35  A    between atoms: _86  and  _88
REMARK   36  A    between atoms: _88  and  _89
REMARK   37  A    between atoms: _88  and  _91
REMARK   38  A    between atoms: _91  and  _92
REMARK   39  A    between atoms: _97  and  _99
REMARK   40  A    between atoms: _99  and  _100
REMARK   41  A    between atoms: _99  and  _102
REMARK   42  A    between atoms: _102  and  _103
REMARK   43  A    between atoms: _106  and  _108
REMARK   44  A    between atoms: _108  and  _109
REMARK   45  A    between atoms: _108  and  _111
REMARK   46  A    between atoms: _111  and  _112
REMARK   47  A    between atoms: _115  and  _117
REMARK   48  A    between atoms: _117  and  _118
REMARK   49  A    between atoms: _117  and  _120
REMARK   50  A    between atoms: _120  and  _121
REMARK   51  A    between atoms: _121  and  _122
REMARK   52  A    between atoms: _122  and  _123
REMARK   53  A    between atoms: _123  and  _124
REMARK   54  A    between atoms: _128  and  _130
REMARK   55  A    between atoms: _130  and  _131
REMARK   56  A    between atoms: _130  and  _133
REMARK   57  A    between atoms: _133  and  _134
REMARK   58  A    between atoms: _134  and  _135
REMARK   59  A    between atoms: _137  and  _139
REMARK   60  A    between atoms: _139  and  _140
REMARK   61  A    between atoms: _139  and  _142
REMARK   62  A    between atoms: _145  and  _147
REMARK   63  A    between atoms: _147  and  _148
REMARK   64  A    between atoms: _150  and  _152
REMARK   65  A    between atoms: _152  and  _153
REMARK   66  A    between atoms: _155  and  _157
REMARK   67  A    between atoms: _157  and  _158
REMARK   68  A    between atoms: _157  and  _160
REMARK   69  A    between atoms: _160  and  _161
REMARK   70  A    between atoms: _164  and  _166
REMARK   71  A    between atoms: _166  and  _167
REMARK   72  A    between atoms: _169  and  _171
REMARK   73  A    between atoms: _171  and  _172
REMARK   74  A    between atoms: _174  and  _176
REMARK   75  A    between atoms: _176  and  _177
REMARK   76  A    between atoms: _176  and  _179
REMARK   77  A    between atoms: _179  and  _180
REMARK   78  A    between atoms: _186  and  _188
REMARK   79  A    between atoms: _188  and  _189
REMARK   80  A    between atoms: _188  and  _191
REMARK   81  A    between atoms: _191  and  _192
REMARK   82  A    between atoms: _195  and  _197
REMARK   83  A    between atoms: _197  and  _198
REMARK   84  A    between atoms: _197  and  _200
REMARK   85  A    between atoms: _200  and  _201
REMARK   86  A    between atoms: _204  and  _206
REMARK   87  A    between atoms: _206  and  _207
REMARK   88  A    between atoms: _206  and  _209
REMARK   89  A    between atoms: _209  and  _210
REMARK   90  A    between atoms: _214  and  _215
REMARK   91  A    between atoms: _220  and  _222
REMARK   92  A    between atoms: _222  and  _223
REMARK   93  A    between atoms: _222  and  _225
REMARK   94  A    between atoms: _228  and  _230
REMARK   95  A    between atoms: _230  and  _231
REMARK   96  A    between atoms: _230  and  _233
REMARK   97  A    between atoms: _233  and  _234
REMARK   98  A    between atoms: _239  and  _241
REMARK   99  A    between atoms: _241  and  _242
REMARK  100  A    between atoms: _241  and  _244
REMARK  101  A    between atoms: _247  and  _249
REMARK  102  A    between atoms: _249  and  _250
REMARK  103  A    between atoms: _249  and  _252
REMARK  104  A    between atoms: _252  and  _253
REMARK  105  A    between atoms: _256  and  _258
REMARK  106  A    between atoms: _258  and  _259
REMARK  107  A    between atoms: _261  and  _263
REMARK  108  A    between atoms: _263  and  _264
REMARK  109  A    between atoms: _263  and  _266
REMARK  110  A    between atoms: _266  and  _267
REMARK  111  A    between atoms: _267  and  _268
REMARK  112  A    between atoms: _268  and  _269
REMARK  113  A    between atoms: _278  and  _280
REMARK  114  A    between atoms: _280  and  _281
REMARK  115  A    between atoms: _280  and  _283
REMARK  116  A    between atoms: _283  and  _284
REMARK  117  A    between atoms: _287  and  _289
REMARK  118  A    between atoms: _289  and  _290
REMARK  119  A    between atoms: _289  and  _292
REMARK  120  A    between atoms: _292  and  _293
REMARK  121  A    between atoms: _293  and  _294
REMARK  122  A    between atoms: _294  and  _295
REMARK  123  A    between atoms: _304  and  _306
REMARK  124  A    between atoms: _306  and  _307
REMARK  125  A    between atoms: _306  and  _309
REMARK  126  A    between atoms: _309  and  _310
REMARK  127  A    between atoms: _316  and  _318
REMARK  128  A    between atoms: _318  and  _319
REMARK  129  A    between atoms: _318  and  _321
REMARK  130  A    between atoms: _321  and  _322
REMARK  131  A    between atoms: _325  and  _327
REMARK  132  A    between atoms: _327  and  _328
REMARK  133  A    between atoms: _327  and  _330
REMARK  134  A    between atoms: _330  and  _331
REMARK  135  A    between atoms: _334  and  _336
REMARK  136  A    between atoms: _336  and  _337
REMARK  137  A    between atoms: _336  and  _339
REMARK  138  A    between atoms: _339  and  _340
REMARK  139  A    between atoms: _343  and  _345
REMARK  140  A    between atoms: _345  and  _346
REMARK  141  A    between atoms: _345  and  _348
REMARK  142  A    between atoms: _348  and  _349
REMARK  143  A    between atoms: _352  and  _354
REMARK  144  A    between atoms: _354  and  _355
REMARK  145  A    between atoms: _357  and  _359
REMARK  146  A    between atoms: _359  and  _360
REMARK  147  A    between atoms: _363  and  _365
REMARK  148  A    between atoms: _365  and  _366
REMARK  149  A    between atoms: _365  and  _368
REMARK  150  A    between atoms: _368  and  _369
REMARK  151  A    between atoms: _372  and  _374
REMARK  152  A    between atoms: _374  and  _375
REMARK  153  A    between atoms: _374  and  _377
REMARK  154  A    between atoms: _377  and  _378
REMARK  155  A    between atoms: _383  and  _385
REMARK  156  A    between atoms: _385  and  _386
REMARK  157  A    between atoms: _385  and  _388
REMARK  158  A    between atoms: _388  and  _389
REMARK  159  A    between atoms: _392  and  _394
REMARK  160  A    between atoms: _394  and  _395
REMARK  161  A    between atoms: _394  and  _397
REMARK  162  A    between atoms: _397  and  _398
REMARK  163  A    between atoms: _401  and  _403
REMARK  164  A    between atoms: _403  and  _404
REMARK  165  A    between atoms: _403  and  _406
REMARK  166  A    between atoms: _406  and  _407
REMARK  167  A    between atoms: _407  and  _408
REMARK  168  A    between atoms: _408  and  _409
REMARK  169  A    between atoms: _409  and  _410
REMARK  170  A    between atoms: _414  and  _416
REMARK  171  A    between atoms: _416  and  _417
REMARK  172  A    between atoms: _416  and  _419
REMARK  173  A    between atoms: _419  and  _420
REMARK  174  A    between atoms: _420  and  _421
REMARK  175  A    between atoms: _423  and  _425
REMARK  176  A    between atoms: _425  and  _426
REMARK  177  A    between atoms: _425  and  _428
REMARK  178  A    between atoms: _431  and  _433
REMARK  179  A    between atoms: _433  and  _434
REMARK  180  A    between atoms: _436  and  _438
REMARK  181  A    between atoms: _438  and  _439
REMARK  182  A    between atoms: _441  and  _443
REMARK  183  A    between atoms: _443  and  _444
REMARK  184  A    between atoms: _443  and  _446
REMARK  185  A    between atoms: _446  and  _447
REMARK  186  A    between atoms: _450  and  _452
REMARK  187  A    between atoms: _452  and  _453
REMARK  188  A    between atoms: _455  and  _457
REMARK  189  A    between atoms: _457  and  _458
REMARK  190  A    between atoms: _460  and  _462
REMARK  191  A    between atoms: _462  and  _463
REMARK  192  A    between atoms: _462  and  _465
REMARK  193  A    between atoms: _465  and  _466
REMARK  194  A    between atoms: _472  and  _474
REMARK  195  A    between atoms: _474  and  _475
REMARK  196  A    between atoms: _474  and  _477
REMARK  197  A    between atoms: _477  and  _478
REMARK  198  A    between atoms: _481  and  _483
REMARK  199  A    between atoms: _483  and  _484
REMARK  200  A    between atoms: _483  and  _486
REMARK  201  A    between atoms: _486  and  _487
REMARK  202  A    between atoms: _490  and  _492
REMARK  203  A    between atoms: _492  and  _493
REMARK  204  A    between atoms: _492  and  _495
REMARK  205  A    between atoms: _495  and  _496
REMARK  206  A    between atoms: _500  and  _501
REMARK  207  A    between atoms: _506  and  _508
REMARK  208  A    between atoms: _508  and  _509
REMARK  209  A    between atoms: _508  and  _511
REMARK  210  A    between atoms: _514  and  _516
REMARK  211  A    between atoms: _516  and  _517
REMARK  212  A    between atoms: _516  and  _519
REMARK  213  A    between atoms: _519  and  _520
REMARK  214  A    between atoms: _525  and  _527
REMARK  215  A    between atoms: _527  and  _528
REMARK  216  A    between atoms: _527  and  _530
REMARK  217  A    between atoms: _533  and  _535
REMARK  218  A    between atoms: _535  and  _536
REMARK  219  A    between atoms: _535  and  _538
REMARK  220  A    between atoms: _538  and  _539
REMARK  221  A    between atoms: _542  and  _544
REMARK  222  A    between atoms: _544  and  _545
REMARK  223  A    between atoms: _547  and  _549
REMARK  224  A    between atoms: _549  and  _550
REMARK  225  A    between atoms: _549  and  _552
REMARK  226  A    between atoms: _552  and  _553
REMARK  227  A    between atoms: _553  and  _554
REMARK  228  A    between atoms: _554  and  _555
REMARK  229  A    between atoms: _564  and  _566
REMARK  230  A    between atoms: _566  and  _567
REMARK  231  A    between atoms: _566  and  _569
REMARK  232  A    between atoms: _569  and  _570
REMARK                            x       y       z     vdW  Elec       q    Type
REMARK                         _______ _______ _______ _____ _____    ______ ____
ROOT
ATOM      1  O   HOH     1      -6.733 -18.389   3.781  0.00  0.00    +0.000 OA
ENDROOT
TORSDOF 0
REMARK  Name = ../refined-set-2016/4ye3/4ye3_pocket.pdb
REMARK  232 active torsions:
REMARK  status: ('A' for Active; 'I' for Inactive)
REMARK    1  A    between atoms: _1  and  _3
REMARK    2  A    between atoms: _3  and  _4
REMARK    3  A    between atoms: _3  and  _6
REMARK    4  A    between atoms: _6  and  _7
REMARK    5  A    between atoms: _7  and  _8
REMARK    6  A    between atoms: _8  and  _9
REMARK    7  A    between atoms: _18  and  _20
REMARK    8  A    between atoms: _20  and  _21
REMARK    9  A    between atoms: _20  and  _23
REMARK   10  A    between atoms: _23  and  _24
REMARK   11  A    between atoms: _30  and  _32
REMARK   12  A    between atoms: _32  and  _33
REMARK   13  A    between atoms: _32  and  _35
REMARK   14  A    between atoms: _35  and  _36
REMARK   15  A    between atoms: _39  and  _41
REMARK   16  A    between atoms: _41  and  _42
REMARK   17  A    between atoms: _41  and  _44
REMARK   18  A    between atoms: _44  and  _45
REMARK   19  A    between atoms: _48  and  _50
REMARK   20  A    between atoms: _50  and  _51
REMARK   21  A    between atoms: _50  and  _53
REMARK   22  A    between atoms: _53  and  _54
REMARK   23  A    between atoms: _57  and  _59
REMARK   24  A    between atoms: _59  and  _60
REMARK   25  A    between atoms: _59  and  _62
REMARK   26  A    between atoms: _62  and  _63
REMARK   27  A    between atoms: _66  and  _68
REMARK   28  A    between atoms: _68  and  _69
REMARK   29  A    between atoms: _71  and  _73
REMARK   30  A    between atoms: _73  and  _74
REMARK   31  A    between atoms: _77  and  _79
REMARK   32  A    between atoms: _79  and  _80
REMARK   33  A    between atoms: _79  and  _82
REMARK   34  A    between atoms: _82  and  _83
REMARK   35  A    between atoms: _86  and  _88
REMARK   36  A    between atoms: _88  and  _89
REMARK   37  A    between atoms: _88  and  _91
REMARK   38  A    between atoms: _91  and  _92
REMARK   39  A    between atoms: _97  and  _99
REMARK   40  A    between atoms: _99  and  _100
REMARK   41  A    between atoms: _99  and  _102
REMARK   42  A    between atoms: _102  and  _103
REMARK   43  A    between atoms: _106  and  _108
REMARK   44  A    between atoms: _108  and  _109
REMARK   45  A    between atoms: _108  and  _111
REMARK   46  A    between atoms: _111  and  _112
REMARK   47  A    between atoms: _115  and  _117
REMARK   48  A    between atoms: _117  and  _118
REMARK   49  A    between atoms: _117  and  _120
REMARK   50  A    between atoms: _120  and  _121
REMARK   51  A    between atoms: _121  and  _122
REMARK   52  A    between atoms: _122  and  _123
REMARK   53  A    between atoms: _123  and  _124
REMARK   54  A    between atoms: _128  and  _130
REMARK   55  A    between atoms: _130  and  _131
REMARK   56  A    between atoms: _130  and  _133
REMARK   57  A    between atoms: _133  and  _134
REMARK   58  A    between atoms: _134  and  _135
REMARK   59  A    between atoms: _137  and  _139
REMARK   60  A    between atoms: _139  and  _140
REMARK   61  A    between atoms: _139  and  _142
REMARK   62  A    between atoms: _145  and  _147
REMARK   63  A    between atoms: _147  and  _148
REMARK   64  A    between atoms: _150  and  _152
REMARK   65  A    between atoms: _152  and  _153
REMARK   66  A    between atoms: _155  and  _157
REMARK   67  A    between atoms: _157  and  _158
REMARK   68  A    between atoms: _157  and  _160
REMARK   69  A    between atoms: _160  and  _161
REMARK   70  A    between atoms: _164  and  _166
REMARK   71  A    between atoms: _166  and  _167
REMARK   72  A    between atoms: _169  and  _171
REMARK   73  A    between atoms: _171  and  _172
REMARK   74  A    between atoms: _174  and  _176
REMARK   75  A    between atoms: _176  and  _177
REMARK   76  A    between atoms: _176  and  _179
REMARK   77  A    between atoms: _179  and  _180
REMARK   78  A    between atoms: _186  and  _188
REMARK   79  A    between atoms: _188  and  _189
REMARK   80  A    between atoms: _188  and  _191
REMARK   81  A    between atoms: _191  and  _192
REMARK   82  A    between atoms: _195  and  _197
REMARK   83  A    between atoms: _197  and  _198
REMARK   84  A    between atoms: _197  and  _200
REMARK   85  A    between atoms: _200  and  _201
REMARK   86  A    between atoms: _204  and  _206
REMARK   87  A    between atoms: _206  and  _207
REMARK   88  A    between atoms: _206  and  _209
REMARK   89  A    between atoms: _209  and  _210
REMARK   90  A    between atoms: _214  and  _215
REMARK   91  A    between atoms: _220  and  _222
REMARK   92  A    between atoms: _222  and  _223
REMARK   93  A    between atoms: _222  and  _225
REMARK   94  A    between atoms: _228  and  _230
REMARK   95  A    between atoms: _230  and  _231
REMARK   96  A    between atoms: _230  and  _233
REMARK   97  A    between atoms: _233  and  _234
REMARK   98  A    between atoms: _239  and  _241
REMARK   99  A    between atoms: _241  and  _242
REMARK  100  A    between atoms: _241  and  _244
REMARK  101  A    between atoms: _247  and  _249
REMARK  102  A    between atoms: _249  and  _250
REMARK  103  A    between atoms: _249  and  _252
REMARK  104  A    between atoms: _252  and  _253
REMARK  105  A    between atoms: _256  and  _258
REMARK  106  A    between atoms: _258  and  _259
REMARK  107  A    between atoms: _261  and  _263
REMARK  108  A    between atoms: _263  and  _264
REMARK  109  A    between atoms: _263  and  _266
REMARK  110  A    between atoms: _266  and  _267
REMARK  111  A    between atoms: _267  and  _268
REMARK  112  A    between atoms: _268  and  _269
REMARK  113  A    between atoms: _278  and  _280
REMARK  114  A    between atoms: _280  and  _281
REMARK  115  A    between atoms: _280  and  _283
REMARK  116  A    between atoms: _283  and  _284
REMARK  117  A    between atoms: _287  and  _289
REMARK  118  A    between atoms: _289  and  _290
REMARK  119  A    between atoms: _289  and  _292
REMARK  120  A    between atoms: _292  and  _293
REMARK  121  A    between atoms: _293  and  _294
REMARK  122  A    between atoms: _294  and  _295
REMARK  123  A    between atoms: _304  and  _306
REMARK  124  A    between atoms: _306  and  _307
REMARK  125  A    between atoms: _306  and  _309
REMARK  126  A    between atoms: _309  and  _310
REMARK  127  A    between atoms: _316  and  _318
REMARK  128  A    between atoms: _318  and  _319
REMARK  129  A    between atoms: _318  and  _321
REMARK  130  A    between atoms: _321  and  _322
REMARK  131  A    between atoms: _325  and  _327
REMARK  132  A    between atoms: _327  and  _328
REMARK  133  A    between atoms: _327  and  _330
REMARK  134  A    between atoms: _330  and  _331
REMARK  135  A    between atoms: _334  and  _336
REMARK  136  A    between atoms: _336  and  _337
REMARK  137  A    between atoms: _336  and  _339
REMARK  138  A    between atoms: _339  and  _340
REMARK  139  A    between atoms: _343  and  _345
REMARK  140  A    between atoms: _345  and  _346
REMARK  141  A    between atoms: _345  and  _348
REMARK  142  A    between atoms: _348  and  _349
REMARK  143  A    between atoms: _352  and  _354
REMARK  144  A    between atoms: _354  and  _355
REMARK  145  A    between atoms: _357  and  _359
REMARK  146  A    between atoms: _359  and  _360
REMARK  147  A    between atoms: _363  and  _365
REMARK  148  A    between atoms: _365  and  _366
REMARK  149  A    between atoms: _365  and  _368
REMARK  150  A    between atoms: _368  and  _369
REMARK  151  A    between atoms: _372  and  _374
REMARK  152  A    between atoms: _374  and  _375
REMARK  153  A    between atoms: _374  and  _377
REMARK  154  A    between atoms: _377  and  _378
REMARK  155  A    between atoms: _383  and  _385
REMARK  156  A    between atoms: _385  and  _386
REMARK  157  A    between atoms: _385  and  _388
REMARK  158  A    between atoms: _388  and  _389
REMARK  159  A    between atoms: _392  and  _394
REMARK  160  A    between atoms: _394  and  _395
REMARK  161  A    between atoms: _394  and  _397
REMARK  162  A    between atoms: _397  and  _398
REMARK  163  A    between atoms: _401  and  _403
REMARK  164  A    between atoms: _403  and  _404
REMARK  165  A    between atoms: _403  and  _406
REMARK  166  A    between atoms: _406  and  _407
REMARK  167  A    between atoms: _407  and  _408
REMARK  168  A    between atoms: _408  and  _409
REMARK  169  A    between atoms: _409  and  _410
REMARK  170  A    between atoms: _414  and  _416
REMARK  171  A    between atoms: _416  and  _417
REMARK  172  A    between atoms: _416  and  _419
REMARK  173  A    between atoms: _419  and  _420
REMARK  174  A    between atoms: _420  and  _421
REMARK  175  A    between atoms: _423  and  _425
REMARK  176  A    between atoms: _425  and  _426
REMARK  177  A    between atoms: _425  and  _428
REMARK  178  A    between atoms: _431  and  _433
REMARK  179  A    between atoms: _433  and  _434
REMARK  180  A    between atoms: _436  and  _438
REMARK  181  A    between atoms: _438  and  _439
REMARK  182  A    between atoms: _441  and  _443
REMARK  183  A    between atoms: _443  and  _444
REMARK  184  A    between atoms: _443  and  _446
REMARK  185  A    between atoms: _446  and  _447
REMARK  186  A    between atoms: _450  and  _452
REMARK  187  A    between atoms: _452  and  _453
REMARK  188  A    between atoms: _455  and  _457
REMARK  189  A    between atoms: _457  and  _458
REMARK  190  A    between atoms: _460  and  _462
REMARK  191  A    between atoms: _462  and  _463
REMARK  192  A    between atoms: _462  and  _465
REMARK  193  A    between atoms: _465  and  _466
REMARK  194  A    between atoms: _472  and  _474
REMARK  195  A    between atoms: _474  and  _475
REMARK  196  A    between atoms: _474  and  _477
REMARK  197  A    between atoms: _477  and  _478
REMARK  198  A    between atoms: _481  and  _483
REMARK  199  A    between atoms: _483  and  _484
REMARK  200  A    between atoms: _483  and  _486
REMARK  201  A    between atoms: _486  and  _487
REMARK  202  A    between atoms: _490  and  _492
REMARK  203  A    between atoms: _492  and  _493
REMARK  204  A    between atoms: _492  and  _495
REMARK  205  A    between atoms: _495  and  _496
REMARK  206  A    between atoms: _500  and  _501
REMARK  207  A    between atoms: _506  and  _508
REMARK  208  A    between atoms: _508  and  _509
REMARK  209  A    between atoms: _508  and  _511
REMARK  210  A    between atoms: _514  and  _516
REMARK  211  A    between atoms: _516  and  _517
REMARK  212  A    between atoms: _516  and  _519
REMARK  213  A    between atoms: _519  and  _520
REMARK  214  A    between atoms: _525  and  _527
REMARK  215  A    between atoms: _527  and  _528
REMARK  216  A    between atoms: _527  and  _530
REMARK  217  A    between atoms: _533  and  _535
REMARK  218  A    between atoms: _535  and  _536
REMARK  219  A    between atoms: _535  and  _538
REMARK  220  A    between atoms: _538  and  _539
REMARK  221  A    between atoms: _542  and  _544
REMARK  222  A    between atoms: _544  and  _545
REMARK  223  A    between atoms: _547  and  _549
REMARK  224  A    between atoms: _549  and  _550
REMARK  225  A    between atoms: _549  and  _552
REMARK  226  A    between atoms: _552  and  _553
REMARK  227  A    between atoms: _553  and  _554
REMARK  228  A    between atoms: _554  and  _555
REMARK  229  A    between atoms: _564  and  _566
REMARK  230  A    between atoms: _566  and  _567
REMARK  231  A    between atoms: _566  and  _569
REMARK  232  A    between atoms: _569  and  _570
REMARK                            x       y       z     vdW  Elec       q    Type
REMARK                         _______ _______ _______ _____ _____    ______ ____
ROOT
ATOM      1  O   HOH     1     -12.492 -15.055  -6.733  0.00  0.00    +0.000 OA
ENDROOT
TORSDOF 0
REMARK  Name = ../refined-set-2016/4ye3/4ye3_pocket.pdb
REMARK  232 active torsions:
REMARK  status: ('A' for Active; 'I' for Inactive)
REMARK    1  A    between atoms: _1  and  _3
REMARK    2  A    between atoms: _3  and  _4
REMARK    3  A    between atoms: _3  and  _6
REMARK    4  A    between atoms: _6  and  _7
REMARK    5  A    between atoms: _7  and  _8
REMARK    6  A    between atoms: _8  and  _9
REMARK    7  A    between atoms: _18  and  _20
REMARK    8  A    between atoms: _20  and  _21
REMARK    9  A    between atoms: _20  and  _23
REMARK   10  A    between atoms: _23  and  _24
REMARK   11  A    between atoms: _30  and  _32
REMARK   12  A    between atoms: _32  and  _33
REMARK   13  A    between atoms: _32  and  _35
REMARK   14  A    between atoms: _35  and  _36
REMARK   15  A    between atoms: _39  and  _41
REMARK   16  A    between atoms: _41  and  _42
REMARK   17  A    between atoms: _41  and  _44
REMARK   18  A    between atoms: _44  and  _45
REMARK   19  A    between atoms: _48  and  _50
REMARK   20  A    between atoms: _50  and  _51
REMARK   21  A    between atoms: _50  and  _53
REMARK   22  A    between atoms: _53  and  _54
REMARK   23  A    between atoms: _57  and  _59
REMARK   24  A    between atoms: _59  and  _60
REMARK   25  A    between atoms: _59  and  _62
REMARK   26  A    between atoms: _62  and  _63
REMARK   27  A    between atoms: _66  and  _68
REMARK   28  A    between atoms: _68  and  _69
REMARK   29  A    between atoms: _71  and  _73
REMARK   30  A    between atoms: _73  and  _74
REMARK   31  A    between atoms: _77  and  _79
REMARK   32  A    between atoms: _79  and  _80
REMARK   33  A    between atoms: _79  and  _82
REMARK   34  A    between atoms: _82  and  _83
REMARK   35  A    between atoms: _86  and  _88
REMARK   36  A    between atoms: _88  and  _89
REMARK   37  A    between atoms: _88  and  _91
REMARK   38  A    between atoms: _91  and  _92
REMARK   39  A    between atoms: _97  and  _99
REMARK   40  A    between atoms: _99  and  _100
REMARK   41  A    between atoms: _99  and  _102
REMARK   42  A    between atoms: _102  and  _103
REMARK   43  A    between atoms: _106  and  _108
REMARK   44  A    between atoms: _108  and  _109
REMARK   45  A    between atoms: _108  and  _111
REMARK   46  A    between atoms: _111  and  _112
REMARK   47  A    between atoms: _115  and  _117
REMARK   48  A    between atoms: _117  and  _118
REMARK   49  A    between atoms: _117  and  _120
REMARK   50  A    between atoms: _120  and  _121
REMARK   51  A    between atoms: _121  and  _122
REMARK   52  A    between atoms: _122  and  _123
REMARK   53  A    between atoms: _123  and  _124
REMARK   54  A    between atoms: _128  and  _130
REMARK   55  A    between atoms: _130  and  _131
REMARK   56  A    between atoms: _130  and  _133
REMARK   57  A    between atoms: _133  and  _134
REMARK   58  A    between atoms: _134  and  _135
REMARK   59  A    between atoms: _137  and  _139
REMARK   60  A    between atoms: _139  and  _140
REMARK   61  A    between atoms: _139  and  _142
REMARK   62  A    between atoms: _145  and  _147
REMARK   63  A    between atoms: _147  and  _148
REMARK   64  A    between atoms: _150  and  _152
REMARK   65  A    between atoms: _152  and  _153
REMARK   66  A    between atoms: _155  and  _157
REMARK   67  A    between atoms: _157  and  _158
REMARK   68  A    between atoms: _157  and  _160
REMARK   69  A    between atoms: _160  and  _161
REMARK   70  A    between atoms: _164  and  _166
REMARK   71  A    between atoms: _166  and  _167
REMARK   72  A    between atoms: _169  and  _171
REMARK   73  A    between atoms: _171  and  _172
REMARK   74  A    between atoms: _174  and  _176
REMARK   75  A    between atoms: _176  and  _177
REMARK   76  A    between atoms: _176  and  _179
REMARK   77  A    between atoms: _179  and  _180
REMARK   78  A    between atoms: _186  and  _188
REMARK   79  A    between atoms: _188  and  _189
REMARK   80  A    between atoms: _188  and  _191
REMARK   81  A    between atoms: _191  and  _192
REMARK   82  A    between atoms: _195  and  _197
REMARK   83  A    between atoms: _197  and  _198
REMARK   84  A    between atoms: _197  and  _200
REMARK   85  A    between atoms: _200  and  _201
REMARK   86  A    between atoms: _204  and  _206
REMARK   87  A    between atoms: _206  and  _207
REMARK   88  A    between atoms: _206  and  _209
REMARK   89  A    between atoms: _209  and  _210
REMARK   90  A    between atoms: _214  and  _215
REMARK   91  A    between atoms: _220  and  _222
REMARK   92  A    between atoms: _222  and  _223
REMARK   93  A    between atoms: _222  and  _225
REMARK   94  A    between atoms: _228  and  _230
REMARK   95  A    between atoms: _230  and  _231
REMARK   96  A    between atoms: _230  and  _233
REMARK   97  A    between atoms: _233  and  _234
REMARK   98  A    between atoms: _239  and  _241
REMARK   99  A    between atoms: _241  and  _242
REMARK  100  A    between atoms: _241  and  _244
REMARK  101  A    between atoms: _247  and  _249
REMARK  102  A    between atoms: _249  and  _250
REMARK  103  A    between atoms: _249  and  _252
REMARK  104  A    between atoms: _252  and  _253
REMARK  105  A    between atoms: _256  and  _258
REMARK  106  A    between atoms: _258  and  _259
REMARK  107  A    between atoms: _261  and  _263
REMARK  108  A    between atoms: _263  and  _264
REMARK  109  A    between atoms: _263  and  _266
REMARK  110  A    between atoms: _266  and  _267
REMARK  111  A    between atoms: _267  and  _268
REMARK  112  A    between atoms: _268  and  _269
REMARK  113  A    between atoms: _278  and  _280
REMARK  114  A    between atoms: _280  and  _281
REMARK  115  A    between atoms: _280  and  _283
REMARK  116  A    between atoms: _283  and  _284
REMARK  117  A    between atoms: _287  and  _289
REMARK  118  A    between atoms: _289  and  _290
REMARK  119  A    between atoms: _289  and  _292
REMARK  120  A    between atoms: _292  and  _293
REMARK  121  A    between atoms: _293  and  _294
REMARK  122  A    between atoms: _294  and  _295
REMARK  123  A    between atoms: _304  and  _306
REMARK  124  A    between atoms: _306  and  _307
REMARK  125  A    between atoms: _306  and  _309
REMARK  126  A    between atoms: _309  and  _310
REMARK  127  A    between atoms: _316  and  _318
REMARK  128  A    between atoms: _318  and  _319
REMARK  129  A    between atoms: _318  and  _321
REMARK  130  A    between atoms: _321  and  _322
REMARK  131  A    between atoms: _325  and  _327
REMARK  132  A    between atoms: _327  and  _328
REMARK  133  A    between atoms: _327  and  _330
REMARK  134  A    between atoms: _330  and  _331
REMARK  135  A    between atoms: _334  and  _336
REMARK  136  A    between atoms: _336  and  _337
REMARK  137  A    between atoms: _336  and  _339
REMARK  138  A    between atoms: _339  and  _340
REMARK  139  A    between atoms: _343  and  _345
REMARK  140  A    between atoms: _345  and  _346
REMARK  141  A    between atoms: _345  and  _348
REMARK  142  A    between atoms: _348  and  _349
REMARK  143  A    between atoms: _352  and  _354
REMARK  144  A    between atoms: _354  and  _355
REMARK  145  A    between atoms: _357  and  _359
REMARK  146  A    between atoms: _359  and  _360
REMARK  147  A    between atoms: _363  and  _365
REMARK  148  A    between atoms: _365  and  _366
REMARK  149  A    between atoms: _365  and  _368
REMARK  150  A    between atoms: _368  and  _369
REMARK  151  A    between atoms: _372  and  _374
REMARK  152  A    between atoms: _374  and  _375
REMARK  153  A    between atoms: _374  and  _377
REMARK  154  A    between atoms: _377  and  _378
REMARK  155  A    between atoms: _383  and  _385
REMARK  156  A    between atoms: _385  and  _386
REMARK  157  A    between atoms: _385  and  _388
REMARK  158  A    between atoms: _388  and  _389
REMARK  159  A    between atoms: _392  and  _394
REMARK  160  A    between atoms: _394  and  _395
REMARK  161  A    between atoms: _394  and  _397
REMARK  162  A    between atoms: _397  and  _398
REMARK  163  A    between atoms: _401  and  _403
REMARK  164  A    between atoms: _403  and  _404
REMARK  165  A    between atoms: _403  and  _406
REMARK  166  A    between atoms: _406  and  _407
REMARK  167  A    between atoms: _407  and  _408
REMARK  168  A    between atoms: _408  and  _409
REMARK  169  A    between atoms: _409  and  _410
REMARK  170  A    between atoms: _414  and  _416
REMARK  171  A    between atoms: _416  and  _417
REMARK  172  A    between atoms: _416  and  _419
REMARK  173  A    between atoms: _419  and  _420
REMARK  174  A    between atoms: _420  and  _421
REMARK  175  A    between atoms: _423  and  _425
REMARK  176  A    between atoms: _425  and  _426
REMARK  177  A    between atoms: _425  and  _428
REMARK  178  A    between atoms: _431  and  _433
REMARK  179  A    between atoms: _433  and  _434
REMARK  180  A    between atoms: _436  and  _438
REMARK  181  A    between atoms: _438  and  _439
REMARK  182  A    between atoms: _441  and  _443
REMARK  183  A    between atoms: _443  and  _444
REMARK  184  A    between atoms: _443  and  _446
REMARK  185  A    between atoms: _446  and  _447
REMARK  186  A    between atoms: _450  and  _452
REMARK  187  A    between atoms: _452  and  _453
REMARK  188  A    between atoms: _455  and  _457
REMARK  189  A    between atoms: _457  and  _458
REMARK  190  A    between atoms: _460  and  _462
REMARK  191  A    between atoms: _462  and  _463
REMARK  192  A    between atoms: _462  and  _465
REMARK  193  A    between atoms: _465  and  _466
REMARK  194  A    between atoms: _472  and  _474
REMARK  195  A    between atoms: _474  and  _475
REMARK  196  A    between atoms: _474  and  _477
REMARK  197  A    between atoms: _477  and  _478
REMARK  198  A    between atoms: _481  and  _483
REMARK  199  A    between atoms: _483  and  _484
REMARK  200  A    between atoms: _483  and  _486
REMARK  201  A    between atoms: _486  and  _487
REMARK  202  A    between atoms: _490  and  _492
REMARK  203  A    between atoms: _492  and  _493
REMARK  204  A    between atoms: _492  and  _495
REMARK  205  A    between atoms: _495  and  _496
REMARK  206  A    between atoms: _500  and  _501
REMARK  207  A    between atoms: _506  and  _508
REMARK  208  A    between atoms: _508  and  _509
REMARK  209  A    between atoms: _508  and  _511
REMARK  210  A    between atoms: _514  and  _516
REMARK  211  A    between atoms: _516  and  _517
REMARK  212  A    between atoms: _516  and  _519
REMARK  213  A    between atoms: _519  and  _520
REMARK  214  A    between atoms: _525  and  _527
REMARK  215  A    between atoms: _527  and  _528
REMARK  216  A    between atoms: _527  and  _530
REMARK  217  A    between atoms: _533  and  _535
REMARK  218  A    between atoms: _535  and  _536
REMARK  219  A    between atoms: _535  and  _538
REMARK  220  A    between atoms: _538  and  _539
REMARK  221  A    between atoms: _542  and  _544
REMARK  222  A    between atoms: _544  and  _545
REMARK  223  A    between atoms: _547  and  _549
REMARK  224  A    between atoms: _549  and  _550
REMARK  225  A    between atoms: _549  and  _552
REMARK  226  A    between atoms: _552  and  _553
REMARK  227  A    between atoms: _553  and  _554
REMARK  228  A    between atoms: _554  and  _555
REMARK  229  A    between atoms: _564  and  _566
REMARK  230  A    between atoms: _566  and  _567
REMARK  231  A    between atoms: _566  and  _569
REMARK  232  A    between atoms: _569  and  _570
REMARK                            x       y       z     vdW  Elec       q    Type
REMARK                         _______ _______ _______ _____ _____    ______ ____
ROOT
ATOM      1  O   UNL     1      -7.324 -12.690  -1.856  0.00  0.00    +0.000 OA
ATOM      2  O   UNL     1      -7.279 -12.694  -0.926  0.00  0.00    +0.000 OA
ENDROOT
TORSDOF 0
