REMARK  Name = ../refined-set-2016/3ujd/3ujd_pocket.pdb
REMARK  160 active torsions:
REMARK  status: ('A' for Active; 'I' for Inactive)
REMARK    1  A    between atoms: _1  and  _3
REMARK    2  A    between atoms: _3  and  _4
REMARK    3  A    between atoms: _3  and  _6
REMARK    4  A    between atoms: _6  and  _7
REMARK    5  A    between atoms: _7  and  _8
REMARK    6  A    between atoms: _13  and  _15
REMARK    7  A    between atoms: _15  and  _16
REMARK    8  A    between atoms: _15  and  _18
REMARK    9  A    between atoms: _18  and  _19
REMARK   10  A    between atoms: _25  and  _27
REMARK   11  A    between atoms: _27  and  _28
REMARK   12  A    between atoms: _30  and  _32
REMARK   13  A    between atoms: _32  and  _33
REMARK   14  A    between atoms: _32  and  _35
REMARK   15  A    between atoms: _35  and  _36
REMARK   16  A    between atoms: _41  and  _42
REMARK   17  A    between atoms: _44  and  _46
REMARK   18  A    between atoms: _46  and  _47
REMARK   19  A    between atoms: _46  and  _49
REMARK   20  A    between atoms: _49  and  _50
REMARK   21  A    between atoms: _53  and  _55
REMARK   22  A    between atoms: _55  and  _56
REMARK   23  A    between atoms: _55  and  _58
REMARK   24  A    between atoms: _58  and  _59
REMARK   25  A    between atoms: _65  and  _67
REMARK   26  A    between atoms: _67  and  _68
REMARK   27  A    between atoms: _67  and  _70
REMARK   28  A    between atoms: _70  and  _71
REMARK   29  A    between atoms: _76  and  _77
REMARK   30  A    between atoms: _79  and  _81
REMARK   31  A    between atoms: _81  and  _82
REMARK   32  A    between atoms: _81  and  _84
REMARK   33  A    between atoms: _84  and  _85
REMARK   34  A    between atoms: _88  and  _90
REMARK   35  A    between atoms: _90  and  _91
REMARK   36  A    between atoms: _90  and  _93
REMARK   37  A    between atoms: _93  and  _94
REMARK   38  A    between atoms: _96  and  _98
REMARK   39  A    between atoms: _98  and  _99
REMARK   40  A    between atoms: _98  and  _101
REMARK   41  A    between atoms: _101  and  _102
REMARK   42  A    between atoms: _104  and  _106
REMARK   43  A    between atoms: _106  and  _107
REMARK   44  A    between atoms: _109  and  _111
REMARK   45  A    between atoms: _111  and  _112
REMARK   46  A    between atoms: _114  and  _116
REMARK   47  A    between atoms: _116  and  _117
REMARK   48  A    between atoms: _119  and  _121
REMARK   49  A    between atoms: _121  and  _122
REMARK   50  A    between atoms: _124  and  _126
REMARK   51  A    between atoms: _126  and  _127
REMARK   52  A    between atoms: _126  and  _129
REMARK   53  A    between atoms: _129  and  _130
REMARK   54  A    between atoms: _130  and  _131
REMARK   55  A    between atoms: _131  and  _132
REMARK   56  A    between atoms: _141  and  _143
REMARK   57  A    between atoms: _143  and  _144
REMARK   58  A    between atoms: _143  and  _146
REMARK   59  A    between atoms: _146  and  _147
REMARK   60  A    between atoms: _150  and  _152
REMARK   61  A    between atoms: _152  and  _153
REMARK   62  A    between atoms: _156  and  _158
REMARK   63  A    between atoms: _158  and  _159
REMARK   64  A    between atoms: _158  and  _161
REMARK   65  A    between atoms: _161  and  _162
REMARK   66  A    between atoms: _165  and  _167
REMARK   67  A    between atoms: _167  and  _168
REMARK   68  A    between atoms: _167  and  _170
REMARK   69  A    between atoms: _170  and  _171
REMARK   70  A    between atoms: _174  and  _176
REMARK   71  A    between atoms: _176  and  _177
REMARK   72  A    between atoms: _176  and  _179
REMARK   73  A    between atoms: _179  and  _180
REMARK   74  A    between atoms: _185  and  _187
REMARK   75  A    between atoms: _187  and  _188
REMARK   76  A    between atoms: _187  and  _190
REMARK   77  A    between atoms: _190  and  _191
REMARK   78  A    between atoms: _194  and  _196
REMARK   79  A    between atoms: _196  and  _197
REMARK   80  A    between atoms: _196  and  _199
REMARK   81  A    between atoms: _199  and  _200
REMARK   82  A    between atoms: _203  and  _205
REMARK   83  A    between atoms: _205  and  _206
REMARK   84  A    between atoms: _205  and  _208
REMARK   85  A    between atoms: _208  and  _209
REMARK   86  A    between atoms: _214  and  _215
REMARK   87  A    between atoms: _217  and  _219
REMARK   88  A    between atoms: _219  and  _220
REMARK   89  A    between atoms: _219  and  _222
REMARK   90  A    between atoms: _222  and  _223
REMARK   91  A    between atoms: _228  and  _229
REMARK   92  A    between atoms: _231  and  _233
REMARK   93  A    between atoms: _233  and  _234
REMARK   94  A    between atoms: _233  and  _236
REMARK   95  A    between atoms: _236  and  _237
REMARK   96  A    between atoms: _237  and  _238
REMARK   97  A    between atoms: _243  and  _245
REMARK   98  A    between atoms: _245  and  _246
REMARK   99  A    between atoms: _245  and  _248
REMARK  100  A    between atoms: _248  and  _249
REMARK  101  A    between atoms: _249  and  _250
REMARK  102  A    between atoms: _250  and  _251
REMARK  103  A    between atoms: _260  and  _262
REMARK  104  A    between atoms: _262  and  _263
REMARK  105  A    between atoms: _262  and  _265
REMARK  106  A    between atoms: _265  and  _266
REMARK  107  A    between atoms: _271  and  _272
REMARK  108  A    between atoms: _274  and  _276
REMARK  109  A    between atoms: _276  and  _277
REMARK  110  A    between atoms: _276  and  _279
REMARK  111  A    between atoms: _279  and  _280
REMARK  112  A    between atoms: _283  and  _285
REMARK  113  A    between atoms: _285  and  _286
REMARK  114  A    between atoms: _285  and  _288
REMARK  115  A    between atoms: _288  and  _289
REMARK  116  A    between atoms: _299  and  _301
REMARK  117  A    between atoms: _301  and  _302
REMARK  118  A    between atoms: _301  and  _304
REMARK  119  A    between atoms: _304  and  _305
REMARK  120  A    between atoms: _308  and  _310
REMARK  121  A    between atoms: _310  and  _311
REMARK  122  A    between atoms: _310  and  _313
REMARK  123  A    between atoms: _313  and  _314
REMARK  124  A    between atoms: _314  and  _315
REMARK  125  A    between atoms: _318  and  _320
REMARK  126  A    between atoms: _320  and  _321
REMARK  127  A    between atoms: _320  and  _323
REMARK  128  A    between atoms: _323  and  _324
REMARK  129  A    between atoms: _326  and  _328
REMARK  130  A    between atoms: _328  and  _329
REMARK  131  A    between atoms: _328  and  _331
REMARK  132  A    between atoms: _331  and  _332
REMARK  133  A    between atoms: _335  and  _337
REMARK  134  A    between atoms: _337  and  _338
REMARK  135  A    between atoms: _340  and  _342
REMARK  136  A    between atoms: _342  and  _343
REMARK  137  A    between atoms: _342  and  _345
REMARK  138  A    between atoms: _345  and  _346
REMARK  139  A    between atoms: _356  and  _358
REMARK  140  A    between atoms: _358  and  _359
REMARK  141  A    between atoms: _358  and  _361
REMARK  142  A    between atoms: _361  and  _362
REMARK  143  A    between atoms: _362  and  _363
REMARK  144  A    between atoms: _363  and  _364
REMARK  145  A    between atoms: _373  and  _375
REMARK  146  A    between atoms: _375  and  _376
REMARK  147  A    between atoms: _375  and  _378
REMARK  148  A    between atoms: _378  and  _379
REMARK  149  A    between atoms: _379  and  _380
REMARK  150  A    between atoms: _380  and  _381
REMARK  151  A    between atoms: _381  and  _382
REMARK  152  A    between atoms: _386  and  _388
REMARK  153  A    between atoms: _388  and  _389
REMARK  154  A    between atoms: _388  and  _391
REMARK  155  A    between atoms: _391  and  _392
REMARK  156  A    between atoms: _392  and  _393
REMARK  157  A    between atoms: _398  and  _400
REMARK  158  A    between atoms: _400  and  _401
REMARK  159  A    between atoms: _400  and  _403
REMARK  160  A    between atoms: _403  and  _404
REMARK                            x       y       z     vdW  Elec       q    Type
REMARK                         _______ _______ _______ _____ _____    ______ ____
ROOT
ATOM      1  C   GLN A   1      22.112   7.867  15.159  0.00  0.00    +0.238 C 
ATOM      2  N   PHE A   2      23.335   8.226  14.784  0.00  0.00    -0.298 N 
ATOM      3  H   PHE A   2      24.160   7.858  15.299  0.00  0.00    +0.150 HD
ATOM      4  O   GLN A   1      21.093   8.177  14.525  0.00  0.00    -0.274 OA
ENDROOT
BRANCH   1   5
ATOM      5  CA  GLN A   1      22.007   7.017  16.422  0.00  0.00    +0.145 C 
BRANCH   5   6
ATOM      6  N   GLN A   1      23.099   6.064  16.552  0.00  0.00    -0.238 NA
ATOM      7  H   GLN A   1      23.716   6.101  17.389  0.00  0.00    +0.142 HD
ENDBRANCH   5   6
BRANCH   5   8
ATOM      8  CB  GLN A   1      21.917   7.913  17.656  0.00  0.00    +0.036 C 
BRANCH   8   9
ATOM      9  CG  GLN A   1      20.738   8.865  17.604  0.00  0.00    +0.087 C 
BRANCH   9  10
ATOM     10  CD  GLN A   1      20.547   9.628  18.895  0.00  0.00    +0.219 C 
ATOM     11  OE1 GLN A   1      21.451   9.683  19.741  0.00  0.00    -0.275 OA
ATOM     12  NE2 GLN A   1      19.369  10.218  19.057  0.00  0.00    -0.329 N 
ATOM     13 HE21 GLN A   1      19.172  10.757  19.925  0.00  0.00    +0.145 HD
ATOM     14 HE22 GLN A   1      18.643  10.142  18.316  0.00  0.00    +0.145 HD
ENDBRANCH   9  10
ENDBRANCH   8   9
ENDBRANCH   5   8
ENDBRANCH   1   5
BRANCH   2  15
ATOM     15  CA  PHE A   2      23.531   9.130  13.659  0.00  0.00    +0.141 C 
BRANCH  15  16
ATOM     16  C   PHE A   2      24.318   8.531  12.494  0.00  0.00    +0.227 C 
ATOM     17  O   PHE A   2      25.173   9.185  11.906  0.00  0.00    -0.286 OA
ENDBRANCH  15  16
BRANCH  15  18
ATOM     18  CB  PHE A   2      24.137  10.455  14.134  0.00  0.00    +0.054 C 
BRANCH  18  19
ATOM     19  CG  PHE A   2      23.295  11.153  15.171  0.00  0.00    -0.020 A 
ATOM     20  CD2 PHE A   2      23.738  11.260  16.474  0.00  0.00    -0.004 A 
ATOM     21  CE2 PHE A   2      22.959  11.900  17.437  0.00  0.00    -0.000 A 
ATOM     22  CZ  PHE A   2      21.725  12.420  17.088  0.00  0.00    -0.000 A 
ATOM     23  CE1 PHE A   2      21.270  12.302  15.794  0.00  0.00    -0.000 A 
ATOM     24  CD1 PHE A   2      22.054  11.665  14.843  0.00  0.00    -0.004 A 
ENDBRANCH  18  19
ENDBRANCH  15  18
ENDBRANCH   2  15
TORSDOF 9
REMARK  Name = ../refined-set-2016/3ujd/3ujd_pocket.pdb
REMARK  160 active torsions:
REMARK  status: ('A' for Active; 'I' for Inactive)
REMARK    1  A    between atoms: _1  and  _3
REMARK    2  A    between atoms: _3  and  _4
REMARK    3  A    between atoms: _3  and  _6
REMARK    4  A    between atoms: _6  and  _7
REMARK    5  A    between atoms: _7  and  _8
REMARK    6  A    between atoms: _13  and  _15
REMARK    7  A    between atoms: _15  and  _16
REMARK    8  A    between atoms: _15  and  _18
REMARK    9  A    between atoms: _18  and  _19
REMARK   10  A    between atoms: _25  and  _27
REMARK   11  A    between atoms: _27  and  _28
REMARK   12  A    between atoms: _30  and  _32
REMARK   13  A    between atoms: _32  and  _33
REMARK   14  A    between atoms: _32  and  _35
REMARK   15  A    between atoms: _35  and  _36
REMARK   16  A    between atoms: _41  and  _42
REMARK   17  A    between atoms: _44  and  _46
REMARK   18  A    between atoms: _46  and  _47
REMARK   19  A    between atoms: _46  and  _49
REMARK   20  A    between atoms: _49  and  _50
REMARK   21  A    between atoms: _53  and  _55
REMARK   22  A    between atoms: _55  and  _56
REMARK   23  A    between atoms: _55  and  _58
REMARK   24  A    between atoms: _58  and  _59
REMARK   25  A    between atoms: _65  and  _67
REMARK   26  A    between atoms: _67  and  _68
REMARK   27  A    between atoms: _67  and  _70
REMARK   28  A    between atoms: _70  and  _71
REMARK   29  A    between atoms: _76  and  _77
REMARK   30  A    between atoms: _79  and  _81
REMARK   31  A    between atoms: _81  and  _82
REMARK   32  A    between atoms: _81  and  _84
REMARK   33  A    between atoms: _84  and  _85
REMARK   34  A    between atoms: _88  and  _90
REMARK   35  A    between atoms: _90  and  _91
REMARK   36  A    between atoms: _90  and  _93
REMARK   37  A    between atoms: _93  and  _94
REMARK   38  A    between atoms: _96  and  _98
REMARK   39  A    between atoms: _98  and  _99
REMARK   40  A    between atoms: _98  and  _101
REMARK   41  A    between atoms: _101  and  _102
REMARK   42  A    between atoms: _104  and  _106
REMARK   43  A    between atoms: _106  and  _107
REMARK   44  A    between atoms: _109  and  _111
REMARK   45  A    between atoms: _111  and  _112
REMARK   46  A    between atoms: _114  and  _116
REMARK   47  A    between atoms: _116  and  _117
REMARK   48  A    between atoms: _119  and  _121
REMARK   49  A    between atoms: _121  and  _122
REMARK   50  A    between atoms: _124  and  _126
REMARK   51  A    between atoms: _126  and  _127
REMARK   52  A    between atoms: _126  and  _129
REMARK   53  A    between atoms: _129  and  _130
REMARK   54  A    between atoms: _130  and  _131
REMARK   55  A    between atoms: _131  and  _132
REMARK   56  A    between atoms: _141  and  _143
REMARK   57  A    between atoms: _143  and  _144
REMARK   58  A    between atoms: _143  and  _146
REMARK   59  A    between atoms: _146  and  _147
REMARK   60  A    between atoms: _150  and  _152
REMARK   61  A    between atoms: _152  and  _153
REMARK   62  A    between atoms: _156  and  _158
REMARK   63  A    between atoms: _158  and  _159
REMARK   64  A    between atoms: _158  and  _161
REMARK   65  A    between atoms: _161  and  _162
REMARK   66  A    between atoms: _165  and  _167
REMARK   67  A    between atoms: _167  and  _168
REMARK   68  A    between atoms: _167  and  _170
REMARK   69  A    between atoms: _170  and  _171
REMARK   70  A    between atoms: _174  and  _176
REMARK   71  A    between atoms: _176  and  _177
REMARK   72  A    between atoms: _176  and  _179
REMARK   73  A    between atoms: _179  and  _180
REMARK   74  A    between atoms: _185  and  _187
REMARK   75  A    between atoms: _187  and  _188
REMARK   76  A    between atoms: _187  and  _190
REMARK   77  A    between atoms: _190  and  _191
REMARK   78  A    between atoms: _194  and  _196
REMARK   79  A    between atoms: _196  and  _197
REMARK   80  A    between atoms: _196  and  _199
REMARK   81  A    between atoms: _199  and  _200
REMARK   82  A    between atoms: _203  and  _205
REMARK   83  A    between atoms: _205  and  _206
REMARK   84  A    between atoms: _205  and  _208
REMARK   85  A    between atoms: _208  and  _209
REMARK   86  A    between atoms: _214  and  _215
REMARK   87  A    between atoms: _217  and  _219
REMARK   88  A    between atoms: _219  and  _220
REMARK   89  A    between atoms: _219  and  _222
REMARK   90  A    between atoms: _222  and  _223
REMARK   91  A    between atoms: _228  and  _229
REMARK   92  A    between atoms: _231  and  _233
REMARK   93  A    between atoms: _233  and  _234
REMARK   94  A    between atoms: _233  and  _236
REMARK   95  A    between atoms: _236  and  _237
REMARK   96  A    between atoms: _237  and  _238
REMARK   97  A    between atoms: _243  and  _245
REMARK   98  A    between atoms: _245  and  _246
REMARK   99  A    between atoms: _245  and  _248
REMARK  100  A    between atoms: _248  and  _249
REMARK  101  A    between atoms: _249  and  _250
REMARK  102  A    between atoms: _250  and  _251
REMARK  103  A    between atoms: _260  and  _262
REMARK  104  A    between atoms: _262  and  _263
REMARK  105  A    between atoms: _262  and  _265
REMARK  106  A    between atoms: _265  and  _266
REMARK  107  A    between atoms: _271  and  _272
REMARK  108  A    between atoms: _274  and  _276
REMARK  109  A    between atoms: _276  and  _277
REMARK  110  A    between atoms: _276  and  _279
REMARK  111  A    between atoms: _279  and  _280
REMARK  112  A    between atoms: _283  and  _285
REMARK  113  A    between atoms: _285  and  _286
REMARK  114  A    between atoms: _285  and  _288
REMARK  115  A    between atoms: _288  and  _289
REMARK  116  A    between atoms: _299  and  _301
REMARK  117  A    between atoms: _301  and  _302
REMARK  118  A    between atoms: _301  and  _304
REMARK  119  A    between atoms: _304  and  _305
REMARK  120  A    between atoms: _308  and  _310
REMARK  121  A    between atoms: _310  and  _311
REMARK  122  A    between atoms: _310  and  _313
REMARK  123  A    between atoms: _313  and  _314
REMARK  124  A    between atoms: _314  and  _315
REMARK  125  A    between atoms: _318  and  _320
REMARK  126  A    between atoms: _320  and  _321
REMARK  127  A    between atoms: _320  and  _323
REMARK  128  A    between atoms: _323  and  _324
REMARK  129  A    between atoms: _326  and  _328
REMARK  130  A    between atoms: _328  and  _329
REMARK  131  A    between atoms: _328  and  _331
REMARK  132  A    between atoms: _331  and  _332
REMARK  133  A    between atoms: _335  and  _337
REMARK  134  A    between atoms: _337  and  _338
REMARK  135  A    between atoms: _340  and  _342
REMARK  136  A    between atoms: _342  and  _343
REMARK  137  A    between atoms: _342  and  _345
REMARK  138  A    between atoms: _345  and  _346
REMARK  139  A    between atoms: _356  and  _358
REMARK  140  A    between atoms: _358  and  _359
REMARK  141  A    between atoms: _358  and  _361
REMARK  142  A    between atoms: _361  and  _362
REMARK  143  A    between atoms: _362  and  _363
REMARK  144  A    between atoms: _363  and  _364
REMARK  145  A    between atoms: _373  and  _375
REMARK  146  A    between atoms: _375  and  _376
REMARK  147  A    between atoms: _375  and  _378
REMARK  148  A    between atoms: _378  and  _379
REMARK  149  A    between atoms: _379  and  _380
REMARK  150  A    between atoms: _380  and  _381
REMARK  151  A    between atoms: _381  and  _382
REMARK  152  A    between atoms: _386  and  _388
REMARK  153  A    between atoms: _388  and  _389
REMARK  154  A    between atoms: _388  and  _391
REMARK  155  A    between atoms: _391  and  _392
REMARK  156  A    between atoms: _392  and  _393
REMARK  157  A    between atoms: _398  and  _400
REMARK  158  A    between atoms: _400  and  _401
REMARK  159  A    between atoms: _400  and  _403
REMARK  160  A    between atoms: _403  and  _404
REMARK                            x       y       z     vdW  Elec       q    Type
REMARK                         _______ _______ _______ _____ _____    ______ ____
ROOT
ATOM      1  CA  GLY A   1      19.505   7.392  10.910  0.00  0.00    +0.156 C 
ENDROOT
BRANCH   1   2
ATOM      2  N   GLY A   1      20.163   6.897   9.715  0.00  0.00    -0.238 NA
ATOM      3  H   GLY A   1      21.105   6.464   9.795  0.00  0.00    +0.142 HD
ENDBRANCH   1   2
BRANCH   1   4
ATOM      4  C   GLY A   1      19.244   8.881  10.809  0.00  0.00    +0.226 C 
ATOM      5  O   GLY A   1      18.182   9.376  11.196  0.00  0.00    -0.287 OA
ENDBRANCH   1   4
TORSDOF 2
REMARK  Name = ../refined-set-2016/3ujd/3ujd_pocket.pdb
REMARK  160 active torsions:
REMARK  status: ('A' for Active; 'I' for Inactive)
REMARK    1  A    between atoms: _1  and  _3
REMARK    2  A    between atoms: _3  and  _4
REMARK    3  A    between atoms: _3  and  _6
REMARK    4  A    between atoms: _6  and  _7
REMARK    5  A    between atoms: _7  and  _8
REMARK    6  A    between atoms: _13  and  _15
REMARK    7  A    between atoms: _15  and  _16
REMARK    8  A    between atoms: _15  and  _18
REMARK    9  A    between atoms: _18  and  _19
REMARK   10  A    between atoms: _25  and  _27
REMARK   11  A    between atoms: _27  and  _28
REMARK   12  A    between atoms: _30  and  _32
REMARK   13  A    between atoms: _32  and  _33
REMARK   14  A    between atoms: _32  and  _35
REMARK   15  A    between atoms: _35  and  _36
REMARK   16  A    between atoms: _41  and  _42
REMARK   17  A    between atoms: _44  and  _46
REMARK   18  A    between atoms: _46  and  _47
REMARK   19  A    between atoms: _46  and  _49
REMARK   20  A    between atoms: _49  and  _50
REMARK   21  A    between atoms: _53  and  _55
REMARK   22  A    between atoms: _55  and  _56
REMARK   23  A    between atoms: _55  and  _58
REMARK   24  A    between atoms: _58  and  _59
REMARK   25  A    between atoms: _65  and  _67
REMARK   26  A    between atoms: _67  and  _68
REMARK   27  A    between atoms: _67  and  _70
REMARK   28  A    between atoms: _70  and  _71
REMARK   29  A    between atoms: _76  and  _77
REMARK   30  A    between atoms: _79  and  _81
REMARK   31  A    between atoms: _81  and  _82
REMARK   32  A    between atoms: _81  and  _84
REMARK   33  A    between atoms: _84  and  _85
REMARK   34  A    between atoms: _88  and  _90
REMARK   35  A    between atoms: _90  and  _91
REMARK   36  A    between atoms: _90  and  _93
REMARK   37  A    between atoms: _93  and  _94
REMARK   38  A    between atoms: _96  and  _98
REMARK   39  A    between atoms: _98  and  _99
REMARK   40  A    between atoms: _98  and  _101
REMARK   41  A    between atoms: _101  and  _102
REMARK   42  A    between atoms: _104  and  _106
REMARK   43  A    between atoms: _106  and  _107
REMARK   44  A    between atoms: _109  and  _111
REMARK   45  A    between atoms: _111  and  _112
REMARK   46  A    between atoms: _114  and  _116
REMARK   47  A    between atoms: _116  and  _117
REMARK   48  A    between atoms: _119  and  _121
REMARK   49  A    between atoms: _121  and  _122
REMARK   50  A    between atoms: _124  and  _126
REMARK   51  A    between atoms: _126  and  _127
REMARK   52  A    between atoms: _126  and  _129
REMARK   53  A    between atoms: _129  and  _130
REMARK   54  A    between atoms: _130  and  _131
REMARK   55  A    between atoms: _131  and  _132
REMARK   56  A    between atoms: _141  and  _143
REMARK   57  A    between atoms: _143  and  _144
REMARK   58  A    between atoms: _143  and  _146
REMARK   59  A    between atoms: _146  and  _147
REMARK   60  A    between atoms: _150  and  _152
REMARK   61  A    between atoms: _152  and  _153
REMARK   62  A    between atoms: _156  and  _158
REMARK   63  A    between atoms: _158  and  _159
REMARK   64  A    between atoms: _158  and  _161
REMARK   65  A    between atoms: _161  and  _162
REMARK   66  A    between atoms: _165  and  _167
REMARK   67  A    between atoms: _167  and  _168
REMARK   68  A    between atoms: _167  and  _170
REMARK   69  A    between atoms: _170  and  _171
REMARK   70  A    between atoms: _174  and  _176
REMARK   71  A    between atoms: _176  and  _177
REMARK   72  A    between atoms: _176  and  _179
REMARK   73  A    between atoms: _179  and  _180
REMARK   74  A    between atoms: _185  and  _187
REMARK   75  A    between atoms: _187  and  _188
REMARK   76  A    between atoms: _187  and  _190
REMARK   77  A    between atoms: _190  and  _191
REMARK   78  A    between atoms: _194  and  _196
REMARK   79  A    between atoms: _196  and  _197
REMARK   80  A    between atoms: _196  and  _199
REMARK   81  A    between atoms: _199  and  _200
REMARK   82  A    between atoms: _203  and  _205
REMARK   83  A    between atoms: _205  and  _206
REMARK   84  A    between atoms: _205  and  _208
REMARK   85  A    between atoms: _208  and  _209
REMARK   86  A    between atoms: _214  and  _215
REMARK   87  A    between atoms: _217  and  _219
REMARK   88  A    between atoms: _219  and  _220
REMARK   89  A    between atoms: _219  and  _222
REMARK   90  A    between atoms: _222  and  _223
REMARK   91  A    between atoms: _228  and  _229
REMARK   92  A    between atoms: _231  and  _233
REMARK   93  A    between atoms: _233  and  _234
REMARK   94  A    between atoms: _233  and  _236
REMARK   95  A    between atoms: _236  and  _237
REMARK   96  A    between atoms: _237  and  _238
REMARK   97  A    between atoms: _243  and  _245
REMARK   98  A    between atoms: _245  and  _246
REMARK   99  A    between atoms: _245  and  _248
REMARK  100  A    between atoms: _248  and  _249
REMARK  101  A    between atoms: _249  and  _250
REMARK  102  A    between atoms: _250  and  _251
REMARK  103  A    between atoms: _260  and  _262
REMARK  104  A    between atoms: _262  and  _263
REMARK  105  A    between atoms: _262  and  _265
REMARK  106  A    between atoms: _265  and  _266
REMARK  107  A    between atoms: _271  and  _272
REMARK  108  A    between atoms: _274  and  _276
REMARK  109  A    between atoms: _276  and  _277
REMARK  110  A    between atoms: _276  and  _279
REMARK  111  A    between atoms: _279  and  _280
REMARK  112  A    between atoms: _283  and  _285
REMARK  113  A    between atoms: _285  and  _286
REMARK  114  A    between atoms: _285  and  _288
REMARK  115  A    between atoms: _288  and  _289
REMARK  116  A    between atoms: _299  and  _301
REMARK  117  A    between atoms: _301  and  _302
REMARK  118  A    between atoms: _301  and  _304
REMARK  119  A    between atoms: _304  and  _305
REMARK  120  A    between atoms: _308  and  _310
REMARK  121  A    between atoms: _310  and  _311
REMARK  122  A    between atoms: _310  and  _313
REMARK  123  A    between atoms: _313  and  _314
REMARK  124  A    between atoms: _314  and  _315
REMARK  125  A    between atoms: _318  and  _320
REMARK  126  A    between atoms: _320  and  _321
REMARK  127  A    between atoms: _320  and  _323
REMARK  128  A    between atoms: _323  and  _324
REMARK  129  A    between atoms: _326  and  _328
REMARK  130  A    between atoms: _328  and  _329
REMARK  131  A    between atoms: _328  and  _331
REMARK  132  A    between atoms: _331  and  _332
REMARK  133  A    between atoms: _335  and  _337
REMARK  134  A    between atoms: _337  and  _338
REMARK  135  A    between atoms: _340  and  _342
REMARK  136  A    between atoms: _342  and  _343
REMARK  137  A    between atoms: _342  and  _345
REMARK  138  A    between atoms: _345  and  _346
REMARK  139  A    between atoms: _356  and  _358
REMARK  140  A    between atoms: _358  and  _359
REMARK  141  A    between atoms: _358  and  _361
REMARK  142  A    between atoms: _361  and  _362
REMARK  143  A    between atoms: _362  and  _363
REMARK  144  A    between atoms: _363  and  _364
REMARK  145  A    between atoms: _373  and  _375
REMARK  146  A    between atoms: _375  and  _376
REMARK  147  A    between atoms: _375  and  _378
REMARK  148  A    between atoms: _378  and  _379
REMARK  149  A    between atoms: _379  and  _380
REMARK  150  A    between atoms: _380  and  _381
REMARK  151  A    between atoms: _381  and  _382
REMARK  152  A    between atoms: _386  and  _388
REMARK  153  A    between atoms: _388  and  _389
REMARK  154  A    between atoms: _388  and  _391
REMARK  155  A    between atoms: _391  and  _392
REMARK  156  A    between atoms: _392  and  _393
REMARK  157  A    between atoms: _398  and  _400
REMARK  158  A    between atoms: _400  and  _401
REMARK  159  A    between atoms: _400  and  _403
REMARK  160  A    between atoms: _403  and  _404
REMARK                            x       y       z     vdW  Elec       q    Type
REMARK                         _______ _______ _______ _____ _____    ______ ____
ROOT
ATOM      1  CG  TYR A   1      16.556  11.404  13.668  0.00  0.00    -0.020 A 
ATOM      2  CD2 TYR A   1      15.450  10.999  14.414  0.00  0.00    -0.001 A 
ATOM      3  CE2 TYR A   1      15.606  10.266  15.594  0.00  0.00    +0.036 A 
ATOM      4  CZ  TYR A   1      16.878   9.956  16.035  0.00  0.00    +0.134 A 
ATOM      5  CE1 TYR A   1      17.981  10.345  15.317  0.00  0.00    +0.036 A 
ATOM      6  CD1 TYR A   1      17.822  11.072  14.144  0.00  0.00    -0.001 A 
ENDROOT
BRANCH   4   7
ATOM      7  OH  TYR A   1      17.039   9.247  17.200  0.00  0.00    -0.506 OA
ATOM      8  HH  TYR A   1      16.151   9.048  17.589  0.00  0.00    +0.292 HD
ENDBRANCH   4   7
BRANCH   1   9
ATOM      9  CB  TYR A   1      16.412  12.233  12.403  0.00  0.00    +0.051 C 
BRANCH   9  10
ATOM     10  CA  TYR A   1      15.215  11.897  11.505  0.00  0.00    +0.137 C 
BRANCH  10  11
ATOM     11  N   TYR A   1      15.540  10.760  10.666  0.00  0.00    -0.239 NA
ATOM     12  H   TYR A   1      16.483  10.325  10.724  0.00  0.00    +0.142 HD
ENDBRANCH  10  11
BRANCH  10  13
ATOM     13  C   TYR A   1      14.822  13.135  10.677  0.00  0.00    +0.224 C 
ATOM     14  O   TYR A   1      13.883  13.848  11.032  0.00  0.00    -0.287 OA
ENDBRANCH  10  13
ENDBRANCH   9  10
ENDBRANCH   1   9
TORSDOF 5
REMARK  Name = ../refined-set-2016/3ujd/3ujd_pocket.pdb
REMARK  160 active torsions:
REMARK  status: ('A' for Active; 'I' for Inactive)
REMARK    1  A    between atoms: _1  and  _3
REMARK    2  A    between atoms: _3  and  _4
REMARK    3  A    between atoms: _3  and  _6
REMARK    4  A    between atoms: _6  and  _7
REMARK    5  A    between atoms: _7  and  _8
REMARK    6  A    between atoms: _13  and  _15
REMARK    7  A    between atoms: _15  and  _16
REMARK    8  A    between atoms: _15  and  _18
REMARK    9  A    between atoms: _18  and  _19
REMARK   10  A    between atoms: _25  and  _27
REMARK   11  A    between atoms: _27  and  _28
REMARK   12  A    between atoms: _30  and  _32
REMARK   13  A    between atoms: _32  and  _33
REMARK   14  A    between atoms: _32  and  _35
REMARK   15  A    between atoms: _35  and  _36
REMARK   16  A    between atoms: _41  and  _42
REMARK   17  A    between atoms: _44  and  _46
REMARK   18  A    between atoms: _46  and  _47
REMARK   19  A    between atoms: _46  and  _49
REMARK   20  A    between atoms: _49  and  _50
REMARK   21  A    between atoms: _53  and  _55
REMARK   22  A    between atoms: _55  and  _56
REMARK   23  A    between atoms: _55  and  _58
REMARK   24  A    between atoms: _58  and  _59
REMARK   25  A    between atoms: _65  and  _67
REMARK   26  A    between atoms: _67  and  _68
REMARK   27  A    between atoms: _67  and  _70
REMARK   28  A    between atoms: _70  and  _71
REMARK   29  A    between atoms: _76  and  _77
REMARK   30  A    between atoms: _79  and  _81
REMARK   31  A    between atoms: _81  and  _82
REMARK   32  A    between atoms: _81  and  _84
REMARK   33  A    between atoms: _84  and  _85
REMARK   34  A    between atoms: _88  and  _90
REMARK   35  A    between atoms: _90  and  _91
REMARK   36  A    between atoms: _90  and  _93
REMARK   37  A    between atoms: _93  and  _94
REMARK   38  A    between atoms: _96  and  _98
REMARK   39  A    between atoms: _98  and  _99
REMARK   40  A    between atoms: _98  and  _101
REMARK   41  A    between atoms: _101  and  _102
REMARK   42  A    between atoms: _104  and  _106
REMARK   43  A    between atoms: _106  and  _107
REMARK   44  A    between atoms: _109  and  _111
REMARK   45  A    between atoms: _111  and  _112
REMARK   46  A    between atoms: _114  and  _116
REMARK   47  A    between atoms: _116  and  _117
REMARK   48  A    between atoms: _119  and  _121
REMARK   49  A    between atoms: _121  and  _122
REMARK   50  A    between atoms: _124  and  _126
REMARK   51  A    between atoms: _126  and  _127
REMARK   52  A    between atoms: _126  and  _129
REMARK   53  A    between atoms: _129  and  _130
REMARK   54  A    between atoms: _130  and  _131
REMARK   55  A    between atoms: _131  and  _132
REMARK   56  A    between atoms: _141  and  _143
REMARK   57  A    between atoms: _143  and  _144
REMARK   58  A    between atoms: _143  and  _146
REMARK   59  A    between atoms: _146  and  _147
REMARK   60  A    between atoms: _150  and  _152
REMARK   61  A    between atoms: _152  and  _153
REMARK   62  A    between atoms: _156  and  _158
REMARK   63  A    between atoms: _158  and  _159
REMARK   64  A    between atoms: _158  and  _161
REMARK   65  A    between atoms: _161  and  _162
REMARK   66  A    between atoms: _165  and  _167
REMARK   67  A    between atoms: _167  and  _168
REMARK   68  A    between atoms: _167  and  _170
REMARK   69  A    between atoms: _170  and  _171
REMARK   70  A    between atoms: _174  and  _176
REMARK   71  A    between atoms: _176  and  _177
REMARK   72  A    between atoms: _176  and  _179
REMARK   73  A    between atoms: _179  and  _180
REMARK   74  A    between atoms: _185  and  _187
REMARK   75  A    between atoms: _187  and  _188
REMARK   76  A    between atoms: _187  and  _190
REMARK   77  A    between atoms: _190  and  _191
REMARK   78  A    between atoms: _194  and  _196
REMARK   79  A    between atoms: _196  and  _197
REMARK   80  A    between atoms: _196  and  _199
REMARK   81  A    between atoms: _199  and  _200
REMARK   82  A    between atoms: _203  and  _205
REMARK   83  A    between atoms: _205  and  _206
REMARK   84  A    between atoms: _205  and  _208
REMARK   85  A    between atoms: _208  and  _209
REMARK   86  A    between atoms: _214  and  _215
REMARK   87  A    between atoms: _217  and  _219
REMARK   88  A    between atoms: _219  and  _220
REMARK   89  A    between atoms: _219  and  _222
REMARK   90  A    between atoms: _222  and  _223
REMARK   91  A    between atoms: _228  and  _229
REMARK   92  A    between atoms: _231  and  _233
REMARK   93  A    between atoms: _233  and  _234
REMARK   94  A    between atoms: _233  and  _236
REMARK   95  A    between atoms: _236  and  _237
REMARK   96  A    between atoms: _237  and  _238
REMARK   97  A    between atoms: _243  and  _245
REMARK   98  A    between atoms: _245  and  _246
REMARK   99  A    between atoms: _245  and  _248
REMARK  100  A    between atoms: _248  and  _249
REMARK  101  A    between atoms: _249  and  _250
REMARK  102  A    between atoms: _250  and  _251
REMARK  103  A    between atoms: _260  and  _262
REMARK  104  A    between atoms: _262  and  _263
REMARK  105  A    between atoms: _262  and  _265
REMARK  106  A    between atoms: _265  and  _266
REMARK  107  A    between atoms: _271  and  _272
REMARK  108  A    between atoms: _274  and  _276
REMARK  109  A    between atoms: _276  and  _277
REMARK  110  A    between atoms: _276  and  _279
REMARK  111  A    between atoms: _279  and  _280
REMARK  112  A    between atoms: _283  and  _285
REMARK  113  A    between atoms: _285  and  _286
REMARK  114  A    between atoms: _285  and  _288
REMARK  115  A    between atoms: _288  and  _289
REMARK  116  A    between atoms: _299  and  _301
REMARK  117  A    between atoms: _301  and  _302
REMARK  118  A    between atoms: _301  and  _304
REMARK  119  A    between atoms: _304  and  _305
REMARK  120  A    between atoms: _308  and  _310
REMARK  121  A    between atoms: _310  and  _311
REMARK  122  A    between atoms: _310  and  _313
REMARK  123  A    between atoms: _313  and  _314
REMARK  124  A    between atoms: _314  and  _315
REMARK  125  A    between atoms: _318  and  _320
REMARK  126  A    between atoms: _320  and  _321
REMARK  127  A    between atoms: _320  and  _323
REMARK  128  A    between atoms: _323  and  _324
REMARK  129  A    between atoms: _326  and  _328
REMARK  130  A    between atoms: _328  and  _329
REMARK  131  A    between atoms: _328  and  _331
REMARK  132  A    between atoms: _331  and  _332
REMARK  133  A    between atoms: _335  and  _337
REMARK  134  A    between atoms: _337  and  _338
REMARK  135  A    between atoms: _340  and  _342
REMARK  136  A    between atoms: _342  and  _343
REMARK  137  A    between atoms: _342  and  _345
REMARK  138  A    between atoms: _345  and  _346
REMARK  139  A    between atoms: _356  and  _358
REMARK  140  A    between atoms: _358  and  _359
REMARK  141  A    between atoms: _358  and  _361
REMARK  142  A    between atoms: _361  and  _362
REMARK  143  A    between atoms: _362  and  _363
REMARK  144  A    between atoms: _363  and  _364
REMARK  145  A    between atoms: _373  and  _375
REMARK  146  A    between atoms: _375  and  _376
REMARK  147  A    between atoms: _375  and  _378
REMARK  148  A    between atoms: _378  and  _379
REMARK  149  A    between atoms: _379  and  _380
REMARK  150  A    between atoms: _380  and  _381
REMARK  151  A    between atoms: _381  and  _382
REMARK  152  A    between atoms: _386  and  _388
REMARK  153  A    between atoms: _388  and  _389
REMARK  154  A    between atoms: _388  and  _391
REMARK  155  A    between atoms: _391  and  _392
REMARK  156  A    between atoms: _392  and  _393
REMARK  157  A    between atoms: _398  and  _400
REMARK  158  A    between atoms: _400  and  _401
REMARK  159  A    between atoms: _400  and  _403
REMARK  160  A    between atoms: _403  and  _404
REMARK                            x       y       z     vdW  Elec       q    Type
REMARK                         _______ _______ _______ _____ _____    ______ ____
ROOT
ATOM      1  C   ILE A   1      10.269  14.976  11.038  0.00  0.00    +0.238 C 
ATOM      2  N   PHE A   2      11.499  15.422  11.258  0.00  0.00    -0.298 N 
ATOM      3  H   PHE A   2      12.319  14.814  11.059  0.00  0.00    +0.150 HD
ATOM      4  O   ILE A   1       9.277  15.662  11.256  0.00  0.00    -0.274 OA
ENDROOT
BRANCH   1   5
ATOM      5  CA  ILE A   1      10.119  13.572  10.446  0.00  0.00    +0.145 C 
BRANCH   5   6
ATOM      6  N   ILE A   1      11.152  13.230   9.478  0.00  0.00    -0.238 NA
ATOM      7  H   ILE A   1      12.011  12.737   9.797  0.00  0.00    +0.142 HD
ENDBRANCH   5   6
BRANCH   5   8
ATOM      8  CB  ILE A   1       9.966  12.471  11.529  0.00  0.00    +0.025 C 
ATOM      9  CG2 ILE A   1      11.236  12.326  12.372  0.00  0.00    +0.002 C 
BRANCH   8  10
ATOM     10  CG1 ILE A   1       8.729  12.728  12.391  0.00  0.00    +0.002 C 
ATOM     11  CD1 ILE A   1       8.369  11.548  13.282  0.00  0.00    +0.000 C 
ENDBRANCH   8  10
ENDBRANCH   5   8
ENDBRANCH   1   5
BRANCH   2  12
ATOM     12  CA  PHE A   2      11.696  16.778  11.784  0.00  0.00    +0.141 C 
BRANCH  12  13
ATOM     13  C   PHE A   2      11.546  17.872  10.735  0.00  0.00    +0.227 C 
ATOM     14  O   PHE A   2      11.123  18.992  11.054  0.00  0.00    -0.286 OA
ENDBRANCH  12  13
BRANCH  12  15
ATOM     15  CB  PHE A   2      13.067  16.910  12.453  0.00  0.00    +0.054 C 
BRANCH  15  16
ATOM     16  CG  PHE A   2      13.204  16.141  13.741  0.00  0.00    -0.020 A 
ATOM     17  CD2 PHE A   2      12.381  16.417  14.825  0.00  0.00    -0.004 A 
ATOM     18  CE2 PHE A   2      12.510  15.712  16.020  0.00  0.00    -0.000 A 
ATOM     19  CZ  PHE A   2      13.488  14.746  16.153  0.00  0.00    -0.000 A 
ATOM     20  CE1 PHE A   2      14.311  14.454  15.078  0.00  0.00    -0.000 A 
ATOM     21  CD1 PHE A   2      14.175  15.165  13.881  0.00  0.00    -0.004 A 
ENDBRANCH  15  16
ENDBRANCH  12  15
ENDBRANCH   2  12
TORSDOF 8
REMARK  Name = ../refined-set-2016/3ujd/3ujd_pocket.pdb
REMARK  160 active torsions:
REMARK  status: ('A' for Active; 'I' for Inactive)
REMARK    1  A    between atoms: _1  and  _3
REMARK    2  A    between atoms: _3  and  _4
REMARK    3  A    between atoms: _3  and  _6
REMARK    4  A    between atoms: _6  and  _7
REMARK    5  A    between atoms: _7  and  _8
REMARK    6  A    between atoms: _13  and  _15
REMARK    7  A    between atoms: _15  and  _16
REMARK    8  A    between atoms: _15  and  _18
REMARK    9  A    between atoms: _18  and  _19
REMARK   10  A    between atoms: _25  and  _27
REMARK   11  A    between atoms: _27  and  _28
REMARK   12  A    between atoms: _30  and  _32
REMARK   13  A    between atoms: _32  and  _33
REMARK   14  A    between atoms: _32  and  _35
REMARK   15  A    between atoms: _35  and  _36
REMARK   16  A    between atoms: _41  and  _42
REMARK   17  A    between atoms: _44  and  _46
REMARK   18  A    between atoms: _46  and  _47
REMARK   19  A    between atoms: _46  and  _49
REMARK   20  A    between atoms: _49  and  _50
REMARK   21  A    between atoms: _53  and  _55
REMARK   22  A    between atoms: _55  and  _56
REMARK   23  A    between atoms: _55  and  _58
REMARK   24  A    between atoms: _58  and  _59
REMARK   25  A    between atoms: _65  and  _67
REMARK   26  A    between atoms: _67  and  _68
REMARK   27  A    between atoms: _67  and  _70
REMARK   28  A    between atoms: _70  and  _71
REMARK   29  A    between atoms: _76  and  _77
REMARK   30  A    between atoms: _79  and  _81
REMARK   31  A    between atoms: _81  and  _82
REMARK   32  A    between atoms: _81  and  _84
REMARK   33  A    between atoms: _84  and  _85
REMARK   34  A    between atoms: _88  and  _90
REMARK   35  A    between atoms: _90  and  _91
REMARK   36  A    between atoms: _90  and  _93
REMARK   37  A    between atoms: _93  and  _94
REMARK   38  A    between atoms: _96  and  _98
REMARK   39  A    between atoms: _98  and  _99
REMARK   40  A    between atoms: _98  and  _101
REMARK   41  A    between atoms: _101  and  _102
REMARK   42  A    between atoms: _104  and  _106
REMARK   43  A    between atoms: _106  and  _107
REMARK   44  A    between atoms: _109  and  _111
REMARK   45  A    between atoms: _111  and  _112
REMARK   46  A    between atoms: _114  and  _116
REMARK   47  A    between atoms: _116  and  _117
REMARK   48  A    between atoms: _119  and  _121
REMARK   49  A    between atoms: _121  and  _122
REMARK   50  A    between atoms: _124  and  _126
REMARK   51  A    between atoms: _126  and  _127
REMARK   52  A    between atoms: _126  and  _129
REMARK   53  A    between atoms: _129  and  _130
REMARK   54  A    between atoms: _130  and  _131
REMARK   55  A    between atoms: _131  and  _132
REMARK   56  A    between atoms: _141  and  _143
REMARK   57  A    between atoms: _143  and  _144
REMARK   58  A    between atoms: _143  and  _146
REMARK   59  A    between atoms: _146  and  _147
REMARK   60  A    between atoms: _150  and  _152
REMARK   61  A    between atoms: _152  and  _153
REMARK   62  A    between atoms: _156  and  _158
REMARK   63  A    between atoms: _158  and  _159
REMARK   64  A    between atoms: _158  and  _161
REMARK   65  A    between atoms: _161  and  _162
REMARK   66  A    between atoms: _165  and  _167
REMARK   67  A    between atoms: _167  and  _168
REMARK   68  A    between atoms: _167  and  _170
REMARK   69  A    between atoms: _170  and  _171
REMARK   70  A    between atoms: _174  and  _176
REMARK   71  A    between atoms: _176  and  _177
REMARK   72  A    between atoms: _176  and  _179
REMARK   73  A    between atoms: _179  and  _180
REMARK   74  A    between atoms: _185  and  _187
REMARK   75  A    between atoms: _187  and  _188
REMARK   76  A    between atoms: _187  and  _190
REMARK   77  A    between atoms: _190  and  _191
REMARK   78  A    between atoms: _194  and  _196
REMARK   79  A    between atoms: _196  and  _197
REMARK   80  A    between atoms: _196  and  _199
REMARK   81  A    between atoms: _199  and  _200
REMARK   82  A    between atoms: _203  and  _205
REMARK   83  A    between atoms: _205  and  _206
REMARK   84  A    between atoms: _205  and  _208
REMARK   85  A    between atoms: _208  and  _209
REMARK   86  A    between atoms: _214  and  _215
REMARK   87  A    between atoms: _217  and  _219
REMARK   88  A    between atoms: _219  and  _220
REMARK   89  A    between atoms: _219  and  _222
REMARK   90  A    between atoms: _222  and  _223
REMARK   91  A    between atoms: _228  and  _229
REMARK   92  A    between atoms: _231  and  _233
REMARK   93  A    between atoms: _233  and  _234
REMARK   94  A    between atoms: _233  and  _236
REMARK   95  A    between atoms: _236  and  _237
REMARK   96  A    between atoms: _237  and  _238
REMARK   97  A    between atoms: _243  and  _245
REMARK   98  A    between atoms: _245  and  _246
REMARK   99  A    between atoms: _245  and  _248
REMARK  100  A    between atoms: _248  and  _249
REMARK  101  A    between atoms: _249  and  _250
REMARK  102  A    between atoms: _250  and  _251
REMARK  103  A    between atoms: _260  and  _262
REMARK  104  A    between atoms: _262  and  _263
REMARK  105  A    between atoms: _262  and  _265
REMARK  106  A    between atoms: _265  and  _266
REMARK  107  A    between atoms: _271  and  _272
REMARK  108  A    between atoms: _274  and  _276
REMARK  109  A    between atoms: _276  and  _277
REMARK  110  A    between atoms: _276  and  _279
REMARK  111  A    between atoms: _279  and  _280
REMARK  112  A    between atoms: _283  and  _285
REMARK  113  A    between atoms: _285  and  _286
REMARK  114  A    between atoms: _285  and  _288
REMARK  115  A    between atoms: _288  and  _289
REMARK  116  A    between atoms: _299  and  _301
REMARK  117  A    between atoms: _301  and  _302
REMARK  118  A    between atoms: _301  and  _304
REMARK  119  A    between atoms: _304  and  _305
REMARK  120  A    between atoms: _308  and  _310
REMARK  121  A    between atoms: _310  and  _311
REMARK  122  A    between atoms: _310  and  _313
REMARK  123  A    between atoms: _313  and  _314
REMARK  124  A    between atoms: _314  and  _315
REMARK  125  A    between atoms: _318  and  _320
REMARK  126  A    between atoms: _320  and  _321
REMARK  127  A    between atoms: _320  and  _323
REMARK  128  A    between atoms: _323  and  _324
REMARK  129  A    between atoms: _326  and  _328
REMARK  130  A    between atoms: _328  and  _329
REMARK  131  A    between atoms: _328  and  _331
REMARK  132  A    between atoms: _331  and  _332
REMARK  133  A    between atoms: _335  and  _337
REMARK  134  A    between atoms: _337  and  _338
REMARK  135  A    between atoms: _340  and  _342
REMARK  136  A    between atoms: _342  and  _343
REMARK  137  A    between atoms: _342  and  _345
REMARK  138  A    between atoms: _345  and  _346
REMARK  139  A    between atoms: _356  and  _358
REMARK  140  A    between atoms: _358  and  _359
REMARK  141  A    between atoms: _358  and  _361
REMARK  142  A    between atoms: _361  and  _362
REMARK  143  A    between atoms: _362  and  _363
REMARK  144  A    between atoms: _363  and  _364
REMARK  145  A    between atoms: _373  and  _375
REMARK  146  A    between atoms: _375  and  _376
REMARK  147  A    between atoms: _375  and  _378
REMARK  148  A    between atoms: _378  and  _379
REMARK  149  A    between atoms: _379  and  _380
REMARK  150  A    between atoms: _380  and  _381
REMARK  151  A    between atoms: _381  and  _382
REMARK  152  A    between atoms: _386  and  _388
REMARK  153  A    between atoms: _388  and  _389
REMARK  154  A    between atoms: _388  and  _391
REMARK  155  A    between atoms: _391  and  _392
REMARK  156  A    between atoms: _392  and  _393
REMARK  157  A    between atoms: _398  and  _400
REMARK  158  A    between atoms: _400  and  _401
REMARK  159  A    between atoms: _400  and  _403
REMARK  160  A    between atoms: _403  and  _404
REMARK                            x       y       z     vdW  Elec       q    Type
REMARK                         _______ _______ _______ _____ _____    ______ ____
ROOT
ATOM      1  C   ILE A   2      17.060  17.140  14.692  0.00  0.00    +0.241 C 
ATOM      2  O   ILE A   2      17.045  16.295  15.579  0.00  0.00    -0.273 OA
ATOM      3  N   SER A   3      16.740  18.417  14.897  0.00  0.00    -0.295 N 
ATOM      4  H   SER A   3      16.786  19.078  14.095  0.00  0.00    +0.150 HD
ENDROOT
BRANCH   3   5
ATOM      5  CA  SER A   3      16.327  18.927  16.204  0.00  0.00    +0.178 C 
BRANCH   5   6
ATOM      6  C   SER A   3      14.804  18.988  16.348  0.00  0.00    +0.243 C 
ATOM      7  N   SER A   4      14.315  18.930  17.591  0.00  0.00    -0.295 N 
ATOM      8  H   SER A   4      14.976  18.911  18.394  0.00  0.00    +0.150 HD
ATOM      9  O   SER A   3      14.086  19.125  15.361  0.00  0.00    -0.273 OA
BRANCH   7  10
ATOM     10  CA  SER A   4      12.870  18.893  17.854  0.00  0.00    +0.178 C 
BRANCH  10  11
ATOM     11  C   SER A   4      12.136  20.053  17.214  0.00  0.00    +0.243 C 
ATOM     12  O   SER A   4      12.547  21.209  17.341  0.00  0.00    -0.273 OA
ATOM     13  N   GLY A   5      11.026  19.764  16.542  0.00  0.00    -0.295 N 
ATOM     14  H   GLY A   5      10.755  18.771  16.391  0.00  0.00    +0.150 HD
BRANCH  13  15
ATOM     15  CA  GLY A   5      10.189  20.833  16.017  0.00  0.00    +0.176 C 
BRANCH  15  16
ATOM     16  C   GLY A   5      10.694  21.488  14.741  0.00  0.00    +0.243 C 
ATOM     17  N   GLY A   6      11.840  21.032  14.244  0.00  0.00    -0.296 N 
ATOM     18  H   GLY A   6      12.345  20.282  14.757  0.00  0.00    +0.150 HD
ATOM     19  O   GLY A   5      10.041  22.383  14.215  0.00  0.00    -0.273 OA
BRANCH  17  20
ATOM     20  CA  GLY A   6      12.413  21.544  13.009  0.00  0.00    +0.163 C 
BRANCH  20  21
ATOM     21  C   GLY A   6      12.311  23.054  12.856  0.00  0.00    +0.229 C 
ATOM     22  O   GLY A   6      12.666  23.802  13.758  0.00  0.00    -0.286 OA
ENDBRANCH  20  21
ENDBRANCH  17  20
ENDBRANCH  15  16
ENDBRANCH  13  15
ENDBRANCH  10  11
BRANCH  10  23
ATOM     23  CB  SER A   4      12.588  18.941  19.358  0.00  0.00    +0.166 C 
BRANCH  23  24
ATOM     24  OG  SER A   4      13.263  17.907  20.037  0.00  0.00    -0.380 OA
ATOM     25  H   SER A   4      14.238  18.002  19.895  0.00  0.00    +0.211 HD
ENDBRANCH  23  24
ENDBRANCH  10  23
ENDBRANCH   7  10
ENDBRANCH   5   6
BRANCH   5  26
ATOM     26  CB  SER A   3      16.929  20.321  16.429  0.00  0.00    +0.166 C 
BRANCH  26  27
ATOM     27  OG  SER A   3      16.657  21.190  15.343  0.00  0.00    -0.380 OA
ATOM     28  H   SER A   3      15.677  21.286  15.236  0.00  0.00    +0.211 HD
ENDBRANCH  26  27
ENDBRANCH   5  26
ENDBRANCH   3   5
BRANCH   1  29
ATOM     29  CA  ILE A   2      17.428  16.744  13.256  0.00  0.00    +0.148 C 
BRANCH  29  31
ATOM     30  C   TYR A   1      16.812  18.068  11.299  0.00  0.00    +0.239 C 
ATOM     31  N   ILE A   2      17.542  17.928  12.407  0.00  0.00    -0.297 N 
ATOM     32  H   ILE A   2      18.209  18.680  12.673  0.00  0.00    +0.150 HD
ATOM     33  O   TYR A   1      16.208  17.142  10.752  0.00  0.00    -0.274 OA
BRANCH  30  34
ATOM     34  CA  TYR A   1      16.763  19.474  10.733  0.00  0.00    +0.149 C 
BRANCH  34  35
ATOM     35  N   TYR A   1      16.845  19.549   9.273  0.00  0.00    -0.238 NA
ATOM     36  H   TYR A   1      16.190  18.988   8.692  0.00  0.00    +0.142 HD
ENDBRANCH  34  35
BRANCH  34  37
ATOM     37  CB  TYR A   1      15.476  20.144  11.236  0.00  0.00    +0.053 C 
BRANCH  37  38
ATOM     38  CG  TYR A   1      15.481  21.647  11.118  0.00  0.00    -0.020 A 
ATOM     39  CD2 TYR A   1      16.086  22.438  12.094  0.00  0.00    -0.001 A 
ATOM     40  CE2 TYR A   1      16.086  23.822  11.991  0.00  0.00    +0.036 A 
ATOM     41  CZ  TYR A   1      15.489  24.419  10.903  0.00  0.00    +0.134 A 
ATOM     42  CE1 TYR A   1      14.891  23.658   9.926  0.00  0.00    +0.036 A 
ATOM     43  CD1 TYR A   1      14.886  22.273  10.041  0.00  0.00    -0.001 A 
BRANCH  41  44
ATOM     44  OH  TYR A   1      15.492  25.795  10.790  0.00  0.00    -0.506 OA
ATOM     45  HH  TYR A   1      15.025  26.058   9.957  0.00  0.00    +0.292 HD
ENDBRANCH  41  44
ENDBRANCH  37  38
ENDBRANCH  34  37
ENDBRANCH  30  34
ENDBRANCH  29  31
BRANCH  29  46
ATOM     46  CB  ILE A   2      18.699  15.859  13.246  0.00  0.00    +0.027 C 
ATOM     47  CG2 ILE A   2      18.987  15.335  11.844  0.00  0.00    +0.002 C 
BRANCH  46  48
ATOM     48  CG1 ILE A   2      19.897  16.613  13.814  0.00  0.00    +0.002 C 
ATOM     49  CD1 ILE A   2      21.137  15.748  13.972  0.00  0.00    +0.000 C 
ENDBRANCH  46  48
ENDBRANCH  29  46
ENDBRANCH   1  29
TORSDOF 21
REMARK  Name = ../refined-set-2016/3ujd/3ujd_pocket.pdb
REMARK  160 active torsions:
REMARK  status: ('A' for Active; 'I' for Inactive)
REMARK    1  A    between atoms: _1  and  _3
REMARK    2  A    between atoms: _3  and  _4
REMARK    3  A    between atoms: _3  and  _6
REMARK    4  A    between atoms: _6  and  _7
REMARK    5  A    between atoms: _7  and  _8
REMARK    6  A    between atoms: _13  and  _15
REMARK    7  A    between atoms: _15  and  _16
REMARK    8  A    between atoms: _15  and  _18
REMARK    9  A    between atoms: _18  and  _19
REMARK   10  A    between atoms: _25  and  _27
REMARK   11  A    between atoms: _27  and  _28
REMARK   12  A    between atoms: _30  and  _32
REMARK   13  A    between atoms: _32  and  _33
REMARK   14  A    between atoms: _32  and  _35
REMARK   15  A    between atoms: _35  and  _36
REMARK   16  A    between atoms: _41  and  _42
REMARK   17  A    between atoms: _44  and  _46
REMARK   18  A    between atoms: _46  and  _47
REMARK   19  A    between atoms: _46  and  _49
REMARK   20  A    between atoms: _49  and  _50
REMARK   21  A    between atoms: _53  and  _55
REMARK   22  A    between atoms: _55  and  _56
REMARK   23  A    between atoms: _55  and  _58
REMARK   24  A    between atoms: _58  and  _59
REMARK   25  A    between atoms: _65  and  _67
REMARK   26  A    between atoms: _67  and  _68
REMARK   27  A    between atoms: _67  and  _70
REMARK   28  A    between atoms: _70  and  _71
REMARK   29  A    between atoms: _76  and  _77
REMARK   30  A    between atoms: _79  and  _81
REMARK   31  A    between atoms: _81  and  _82
REMARK   32  A    between atoms: _81  and  _84
REMARK   33  A    between atoms: _84  and  _85
REMARK   34  A    between atoms: _88  and  _90
REMARK   35  A    between atoms: _90  and  _91
REMARK   36  A    between atoms: _90  and  _93
REMARK   37  A    between atoms: _93  and  _94
REMARK   38  A    between atoms: _96  and  _98
REMARK   39  A    between atoms: _98  and  _99
REMARK   40  A    between atoms: _98  and  _101
REMARK   41  A    between atoms: _101  and  _102
REMARK   42  A    between atoms: _104  and  _106
REMARK   43  A    between atoms: _106  and  _107
REMARK   44  A    between atoms: _109  and  _111
REMARK   45  A    between atoms: _111  and  _112
REMARK   46  A    between atoms: _114  and  _116
REMARK   47  A    between atoms: _116  and  _117
REMARK   48  A    between atoms: _119  and  _121
REMARK   49  A    between atoms: _121  and  _122
REMARK   50  A    between atoms: _124  and  _126
REMARK   51  A    between atoms: _126  and  _127
REMARK   52  A    between atoms: _126  and  _129
REMARK   53  A    between atoms: _129  and  _130
REMARK   54  A    between atoms: _130  and  _131
REMARK   55  A    between atoms: _131  and  _132
REMARK   56  A    between atoms: _141  and  _143
REMARK   57  A    between atoms: _143  and  _144
REMARK   58  A    between atoms: _143  and  _146
REMARK   59  A    between atoms: _146  and  _147
REMARK   60  A    between atoms: _150  and  _152
REMARK   61  A    between atoms: _152  and  _153
REMARK   62  A    between atoms: _156  and  _158
REMARK   63  A    between atoms: _158  and  _159
REMARK   64  A    between atoms: _158  and  _161
REMARK   65  A    between atoms: _161  and  _162
REMARK   66  A    between atoms: _165  and  _167
REMARK   67  A    between atoms: _167  and  _168
REMARK   68  A    between atoms: _167  and  _170
REMARK   69  A    between atoms: _170  and  _171
REMARK   70  A    between atoms: _174  and  _176
REMARK   71  A    between atoms: _176  and  _177
REMARK   72  A    between atoms: _176  and  _179
REMARK   73  A    between atoms: _179  and  _180
REMARK   74  A    between atoms: _185  and  _187
REMARK   75  A    between atoms: _187  and  _188
REMARK   76  A    between atoms: _187  and  _190
REMARK   77  A    between atoms: _190  and  _191
REMARK   78  A    between atoms: _194  and  _196
REMARK   79  A    between atoms: _196  and  _197
REMARK   80  A    between atoms: _196  and  _199
REMARK   81  A    between atoms: _199  and  _200
REMARK   82  A    between atoms: _203  and  _205
REMARK   83  A    between atoms: _205  and  _206
REMARK   84  A    between atoms: _205  and  _208
REMARK   85  A    between atoms: _208  and  _209
REMARK   86  A    between atoms: _214  and  _215
REMARK   87  A    between atoms: _217  and  _219
REMARK   88  A    between atoms: _219  and  _220
REMARK   89  A    between atoms: _219  and  _222
REMARK   90  A    between atoms: _222  and  _223
REMARK   91  A    between atoms: _228  and  _229
REMARK   92  A    between atoms: _231  and  _233
REMARK   93  A    between atoms: _233  and  _234
REMARK   94  A    between atoms: _233  and  _236
REMARK   95  A    between atoms: _236  and  _237
REMARK   96  A    between atoms: _237  and  _238
REMARK   97  A    between atoms: _243  and  _245
REMARK   98  A    between atoms: _245  and  _246
REMARK   99  A    between atoms: _245  and  _248
REMARK  100  A    between atoms: _248  and  _249
REMARK  101  A    between atoms: _249  and  _250
REMARK  102  A    between atoms: _250  and  _251
REMARK  103  A    between atoms: _260  and  _262
REMARK  104  A    between atoms: _262  and  _263
REMARK  105  A    between atoms: _262  and  _265
REMARK  106  A    between atoms: _265  and  _266
REMARK  107  A    between atoms: _271  and  _272
REMARK  108  A    between atoms: _274  and  _276
REMARK  109  A    between atoms: _276  and  _277
REMARK  110  A    between atoms: _276  and  _279
REMARK  111  A    between atoms: _279  and  _280
REMARK  112  A    between atoms: _283  and  _285
REMARK  113  A    between atoms: _285  and  _286
REMARK  114  A    between atoms: _285  and  _288
REMARK  115  A    between atoms: _288  and  _289
REMARK  116  A    between atoms: _299  and  _301
REMARK  117  A    between atoms: _301  and  _302
REMARK  118  A    between atoms: _301  and  _304
REMARK  119  A    between atoms: _304  and  _305
REMARK  120  A    between atoms: _308  and  _310
REMARK  121  A    between atoms: _310  and  _311
REMARK  122  A    between atoms: _310  and  _313
REMARK  123  A    between atoms: _313  and  _314
REMARK  124  A    between atoms: _314  and  _315
REMARK  125  A    between atoms: _318  and  _320
REMARK  126  A    between atoms: _320  and  _321
REMARK  127  A    between atoms: _320  and  _323
REMARK  128  A    between atoms: _323  and  _324
REMARK  129  A    between atoms: _326  and  _328
REMARK  130  A    between atoms: _328  and  _329
REMARK  131  A    between atoms: _328  and  _331
REMARK  132  A    between atoms: _331  and  _332
REMARK  133  A    between atoms: _335  and  _337
REMARK  134  A    between atoms: _337  and  _338
REMARK  135  A    between atoms: _340  and  _342
REMARK  136  A    between atoms: _342  and  _343
REMARK  137  A    between atoms: _342  and  _345
REMARK  138  A    between atoms: _345  and  _346
REMARK  139  A    between atoms: _356  and  _358
REMARK  140  A    between atoms: _358  and  _359
REMARK  141  A    between atoms: _358  and  _361
REMARK  142  A    between atoms: _361  and  _362
REMARK  143  A    between atoms: _362  and  _363
REMARK  144  A    between atoms: _363  and  _364
REMARK  145  A    between atoms: _373  and  _375
REMARK  146  A    between atoms: _375  and  _376
REMARK  147  A    between atoms: _375  and  _378
REMARK  148  A    between atoms: _378  and  _379
REMARK  149  A    between atoms: _379  and  _380
REMARK  150  A    between atoms: _380  and  _381
REMARK  151  A    between atoms: _381  and  _382
REMARK  152  A    between atoms: _386  and  _388
REMARK  153  A    between atoms: _388  and  _389
REMARK  154  A    between atoms: _388  and  _391
REMARK  155  A    between atoms: _391  and  _392
REMARK  156  A    between atoms: _392  and  _393
REMARK  157  A    between atoms: _398  and  _400
REMARK  158  A    between atoms: _400  and  _401
REMARK  159  A    between atoms: _400  and  _403
REMARK  160  A    between atoms: _403  and  _404
REMARK                            x       y       z     vdW  Elec       q    Type
REMARK                         _______ _______ _______ _____ _____    ______ ____
ROOT
ATOM      1  CA  GLY A   1      25.528  20.456  17.632  0.00  0.00    +0.156 C 
ENDROOT
BRANCH   1   2
ATOM      2  N   GLY A   1      26.337  21.578  18.076  0.00  0.00    -0.238 NA
ATOM      3  H   GLY A   1      27.290  21.694  17.676  0.00  0.00    +0.142 HD
ENDBRANCH   1   2
BRANCH   1   4
ATOM      4  C   GLY A   1      24.708  20.857  16.425  0.00  0.00    +0.226 C 
ATOM      5  O   GLY A   1      23.488  20.699  16.403  0.00  0.00    -0.287 OA
ENDBRANCH   1   4
TORSDOF 2
REMARK  Name = ../refined-set-2016/3ujd/3ujd_pocket.pdb
REMARK  160 active torsions:
REMARK  status: ('A' for Active; 'I' for Inactive)
REMARK    1  A    between atoms: _1  and  _3
REMARK    2  A    between atoms: _3  and  _4
REMARK    3  A    between atoms: _3  and  _6
REMARK    4  A    between atoms: _6  and  _7
REMARK    5  A    between atoms: _7  and  _8
REMARK    6  A    between atoms: _13  and  _15
REMARK    7  A    between atoms: _15  and  _16
REMARK    8  A    between atoms: _15  and  _18
REMARK    9  A    between atoms: _18  and  _19
REMARK   10  A    between atoms: _25  and  _27
REMARK   11  A    between atoms: _27  and  _28
REMARK   12  A    between atoms: _30  and  _32
REMARK   13  A    between atoms: _32  and  _33
REMARK   14  A    between atoms: _32  and  _35
REMARK   15  A    between atoms: _35  and  _36
REMARK   16  A    between atoms: _41  and  _42
REMARK   17  A    between atoms: _44  and  _46
REMARK   18  A    between atoms: _46  and  _47
REMARK   19  A    between atoms: _46  and  _49
REMARK   20  A    between atoms: _49  and  _50
REMARK   21  A    between atoms: _53  and  _55
REMARK   22  A    between atoms: _55  and  _56
REMARK   23  A    between atoms: _55  and  _58
REMARK   24  A    between atoms: _58  and  _59
REMARK   25  A    between atoms: _65  and  _67
REMARK   26  A    between atoms: _67  and  _68
REMARK   27  A    between atoms: _67  and  _70
REMARK   28  A    between atoms: _70  and  _71
REMARK   29  A    between atoms: _76  and  _77
REMARK   30  A    between atoms: _79  and  _81
REMARK   31  A    between atoms: _81  and  _82
REMARK   32  A    between atoms: _81  and  _84
REMARK   33  A    between atoms: _84  and  _85
REMARK   34  A    between atoms: _88  and  _90
REMARK   35  A    between atoms: _90  and  _91
REMARK   36  A    between atoms: _90  and  _93
REMARK   37  A    between atoms: _93  and  _94
REMARK   38  A    between atoms: _96  and  _98
REMARK   39  A    between atoms: _98  and  _99
REMARK   40  A    between atoms: _98  and  _101
REMARK   41  A    between atoms: _101  and  _102
REMARK   42  A    between atoms: _104  and  _106
REMARK   43  A    between atoms: _106  and  _107
REMARK   44  A    between atoms: _109  and  _111
REMARK   45  A    between atoms: _111  and  _112
REMARK   46  A    between atoms: _114  and  _116
REMARK   47  A    between atoms: _116  and  _117
REMARK   48  A    between atoms: _119  and  _121
REMARK   49  A    between atoms: _121  and  _122
REMARK   50  A    between atoms: _124  and  _126
REMARK   51  A    between atoms: _126  and  _127
REMARK   52  A    between atoms: _126  and  _129
REMARK   53  A    between atoms: _129  and  _130
REMARK   54  A    between atoms: _130  and  _131
REMARK   55  A    between atoms: _131  and  _132
REMARK   56  A    between atoms: _141  and  _143
REMARK   57  A    between atoms: _143  and  _144
REMARK   58  A    between atoms: _143  and  _146
REMARK   59  A    between atoms: _146  and  _147
REMARK   60  A    between atoms: _150  and  _152
REMARK   61  A    between atoms: _152  and  _153
REMARK   62  A    between atoms: _156  and  _158
REMARK   63  A    between atoms: _158  and  _159
REMARK   64  A    between atoms: _158  and  _161
REMARK   65  A    between atoms: _161  and  _162
REMARK   66  A    between atoms: _165  and  _167
REMARK   67  A    between atoms: _167  and  _168
REMARK   68  A    between atoms: _167  and  _170
REMARK   69  A    between atoms: _170  and  _171
REMARK   70  A    between atoms: _174  and  _176
REMARK   71  A    between atoms: _176  and  _177
REMARK   72  A    between atoms: _176  and  _179
REMARK   73  A    between atoms: _179  and  _180
REMARK   74  A    between atoms: _185  and  _187
REMARK   75  A    between atoms: _187  and  _188
REMARK   76  A    between atoms: _187  and  _190
REMARK   77  A    between atoms: _190  and  _191
REMARK   78  A    between atoms: _194  and  _196
REMARK   79  A    between atoms: _196  and  _197
REMARK   80  A    between atoms: _196  and  _199
REMARK   81  A    between atoms: _199  and  _200
REMARK   82  A    between atoms: _203  and  _205
REMARK   83  A    between atoms: _205  and  _206
REMARK   84  A    between atoms: _205  and  _208
REMARK   85  A    between atoms: _208  and  _209
REMARK   86  A    between atoms: _214  and  _215
REMARK   87  A    between atoms: _217  and  _219
REMARK   88  A    between atoms: _219  and  _220
REMARK   89  A    between atoms: _219  and  _222
REMARK   90  A    between atoms: _222  and  _223
REMARK   91  A    between atoms: _228  and  _229
REMARK   92  A    between atoms: _231  and  _233
REMARK   93  A    between atoms: _233  and  _234
REMARK   94  A    between atoms: _233  and  _236
REMARK   95  A    between atoms: _236  and  _237
REMARK   96  A    between atoms: _237  and  _238
REMARK   97  A    between atoms: _243  and  _245
REMARK   98  A    between atoms: _245  and  _246
REMARK   99  A    between atoms: _245  and  _248
REMARK  100  A    between atoms: _248  and  _249
REMARK  101  A    between atoms: _249  and  _250
REMARK  102  A    between atoms: _250  and  _251
REMARK  103  A    between atoms: _260  and  _262
REMARK  104  A    between atoms: _262  and  _263
REMARK  105  A    between atoms: _262  and  _265
REMARK  106  A    between atoms: _265  and  _266
REMARK  107  A    between atoms: _271  and  _272
REMARK  108  A    between atoms: _274  and  _276
REMARK  109  A    between atoms: _276  and  _277
REMARK  110  A    between atoms: _276  and  _279
REMARK  111  A    between atoms: _279  and  _280
REMARK  112  A    between atoms: _283  and  _285
REMARK  113  A    between atoms: _285  and  _286
REMARK  114  A    between atoms: _285  and  _288
REMARK  115  A    between atoms: _288  and  _289
REMARK  116  A    between atoms: _299  and  _301
REMARK  117  A    between atoms: _301  and  _302
REMARK  118  A    between atoms: _301  and  _304
REMARK  119  A    between atoms: _304  and  _305
REMARK  120  A    between atoms: _308  and  _310
REMARK  121  A    between atoms: _310  and  _311
REMARK  122  A    between atoms: _310  and  _313
REMARK  123  A    between atoms: _313  and  _314
REMARK  124  A    between atoms: _314  and  _315
REMARK  125  A    between atoms: _318  and  _320
REMARK  126  A    between atoms: _320  and  _321
REMARK  127  A    between atoms: _320  and  _323
REMARK  128  A    between atoms: _323  and  _324
REMARK  129  A    between atoms: _326  and  _328
REMARK  130  A    between atoms: _328  and  _329
REMARK  131  A    between atoms: _328  and  _331
REMARK  132  A    between atoms: _331  and  _332
REMARK  133  A    between atoms: _335  and  _337
REMARK  134  A    between atoms: _337  and  _338
REMARK  135  A    between atoms: _340  and  _342
REMARK  136  A    between atoms: _342  and  _343
REMARK  137  A    between atoms: _342  and  _345
REMARK  138  A    between atoms: _345  and  _346
REMARK  139  A    between atoms: _356  and  _358
REMARK  140  A    between atoms: _358  and  _359
REMARK  141  A    between atoms: _358  and  _361
REMARK  142  A    between atoms: _361  and  _362
REMARK  143  A    between atoms: _362  and  _363
REMARK  144  A    between atoms: _363  and  _364
REMARK  145  A    between atoms: _373  and  _375
REMARK  146  A    between atoms: _375  and  _376
REMARK  147  A    between atoms: _375  and  _378
REMARK  148  A    between atoms: _378  and  _379
REMARK  149  A    between atoms: _379  and  _380
REMARK  150  A    between atoms: _380  and  _381
REMARK  151  A    between atoms: _381  and  _382
REMARK  152  A    between atoms: _386  and  _388
REMARK  153  A    between atoms: _388  and  _389
REMARK  154  A    between atoms: _388  and  _391
REMARK  155  A    between atoms: _391  and  _392
REMARK  156  A    between atoms: _392  and  _393
REMARK  157  A    between atoms: _398  and  _400
REMARK  158  A    between atoms: _400  and  _401
REMARK  159  A    between atoms: _400  and  _403
REMARK  160  A    between atoms: _403  and  _404
REMARK                            x       y       z     vdW  Elec       q    Type
REMARK                         _______ _______ _______ _____ _____    ______ ____
ROOT
ATOM      1  CA  GLY A   1      23.369  18.828  12.724  0.00  0.00    +0.156 C 
ENDROOT
BRANCH   1   2
ATOM      2  N   GLY A   1      24.179  19.790  13.460  0.00  0.00    -0.238 NA
ATOM      3  H   GLY A   1      24.946  19.454  14.077  0.00  0.00    +0.142 HD
ENDBRANCH   1   2
BRANCH   1   4
ATOM      4  C   GLY A   1      23.366  19.048  11.221  0.00  0.00    +0.226 C 
ATOM      5  O   GLY A   1      24.413  19.231  10.606  0.00  0.00    -0.287 OA
ENDBRANCH   1   4
TORSDOF 2
REMARK  Name = ../refined-set-2016/3ujd/3ujd_pocket.pdb
REMARK  160 active torsions:
REMARK  status: ('A' for Active; 'I' for Inactive)
REMARK    1  A    between atoms: _1  and  _3
REMARK    2  A    between atoms: _3  and  _4
REMARK    3  A    between atoms: _3  and  _6
REMARK    4  A    between atoms: _6  and  _7
REMARK    5  A    between atoms: _7  and  _8
REMARK    6  A    between atoms: _13  and  _15
REMARK    7  A    between atoms: _15  and  _16
REMARK    8  A    between atoms: _15  and  _18
REMARK    9  A    between atoms: _18  and  _19
REMARK   10  A    between atoms: _25  and  _27
REMARK   11  A    between atoms: _27  and  _28
REMARK   12  A    between atoms: _30  and  _32
REMARK   13  A    between atoms: _32  and  _33
REMARK   14  A    between atoms: _32  and  _35
REMARK   15  A    between atoms: _35  and  _36
REMARK   16  A    between atoms: _41  and  _42
REMARK   17  A    between atoms: _44  and  _46
REMARK   18  A    between atoms: _46  and  _47
REMARK   19  A    between atoms: _46  and  _49
REMARK   20  A    between atoms: _49  and  _50
REMARK   21  A    between atoms: _53  and  _55
REMARK   22  A    between atoms: _55  and  _56
REMARK   23  A    between atoms: _55  and  _58
REMARK   24  A    between atoms: _58  and  _59
REMARK   25  A    between atoms: _65  and  _67
REMARK   26  A    between atoms: _67  and  _68
REMARK   27  A    between atoms: _67  and  _70
REMARK   28  A    between atoms: _70  and  _71
REMARK   29  A    between atoms: _76  and  _77
REMARK   30  A    between atoms: _79  and  _81
REMARK   31  A    between atoms: _81  and  _82
REMARK   32  A    between atoms: _81  and  _84
REMARK   33  A    between atoms: _84  and  _85
REMARK   34  A    between atoms: _88  and  _90
REMARK   35  A    between atoms: _90  and  _91
REMARK   36  A    between atoms: _90  and  _93
REMARK   37  A    between atoms: _93  and  _94
REMARK   38  A    between atoms: _96  and  _98
REMARK   39  A    between atoms: _98  and  _99
REMARK   40  A    between atoms: _98  and  _101
REMARK   41  A    between atoms: _101  and  _102
REMARK   42  A    between atoms: _104  and  _106
REMARK   43  A    between atoms: _106  and  _107
REMARK   44  A    between atoms: _109  and  _111
REMARK   45  A    between atoms: _111  and  _112
REMARK   46  A    between atoms: _114  and  _116
REMARK   47  A    between atoms: _116  and  _117
REMARK   48  A    between atoms: _119  and  _121
REMARK   49  A    between atoms: _121  and  _122
REMARK   50  A    between atoms: _124  and  _126
REMARK   51  A    between atoms: _126  and  _127
REMARK   52  A    between atoms: _126  and  _129
REMARK   53  A    between atoms: _129  and  _130
REMARK   54  A    between atoms: _130  and  _131
REMARK   55  A    between atoms: _131  and  _132
REMARK   56  A    between atoms: _141  and  _143
REMARK   57  A    between atoms: _143  and  _144
REMARK   58  A    between atoms: _143  and  _146
REMARK   59  A    between atoms: _146  and  _147
REMARK   60  A    between atoms: _150  and  _152
REMARK   61  A    between atoms: _152  and  _153
REMARK   62  A    between atoms: _156  and  _158
REMARK   63  A    between atoms: _158  and  _159
REMARK   64  A    between atoms: _158  and  _161
REMARK   65  A    between atoms: _161  and  _162
REMARK   66  A    between atoms: _165  and  _167
REMARK   67  A    between atoms: _167  and  _168
REMARK   68  A    between atoms: _167  and  _170
REMARK   69  A    between atoms: _170  and  _171
REMARK   70  A    between atoms: _174  and  _176
REMARK   71  A    between atoms: _176  and  _177
REMARK   72  A    between atoms: _176  and  _179
REMARK   73  A    between atoms: _179  and  _180
REMARK   74  A    between atoms: _185  and  _187
REMARK   75  A    between atoms: _187  and  _188
REMARK   76  A    between atoms: _187  and  _190
REMARK   77  A    between atoms: _190  and  _191
REMARK   78  A    between atoms: _194  and  _196
REMARK   79  A    between atoms: _196  and  _197
REMARK   80  A    between atoms: _196  and  _199
REMARK   81  A    between atoms: _199  and  _200
REMARK   82  A    between atoms: _203  and  _205
REMARK   83  A    between atoms: _205  and  _206
REMARK   84  A    between atoms: _205  and  _208
REMARK   85  A    between atoms: _208  and  _209
REMARK   86  A    between atoms: _214  and  _215
REMARK   87  A    between atoms: _217  and  _219
REMARK   88  A    between atoms: _219  and  _220
REMARK   89  A    between atoms: _219  and  _222
REMARK   90  A    between atoms: _222  and  _223
REMARK   91  A    between atoms: _228  and  _229
REMARK   92  A    between atoms: _231  and  _233
REMARK   93  A    between atoms: _233  and  _234
REMARK   94  A    between atoms: _233  and  _236
REMARK   95  A    between atoms: _236  and  _237
REMARK   96  A    between atoms: _237  and  _238
REMARK   97  A    between atoms: _243  and  _245
REMARK   98  A    between atoms: _245  and  _246
REMARK   99  A    between atoms: _245  and  _248
REMARK  100  A    between atoms: _248  and  _249
REMARK  101  A    between atoms: _249  and  _250
REMARK  102  A    between atoms: _250  and  _251
REMARK  103  A    between atoms: _260  and  _262
REMARK  104  A    between atoms: _262  and  _263
REMARK  105  A    between atoms: _262  and  _265
REMARK  106  A    between atoms: _265  and  _266
REMARK  107  A    between atoms: _271  and  _272
REMARK  108  A    between atoms: _274  and  _276
REMARK  109  A    between atoms: _276  and  _277
REMARK  110  A    between atoms: _276  and  _279
REMARK  111  A    between atoms: _279  and  _280
REMARK  112  A    between atoms: _283  and  _285
REMARK  113  A    between atoms: _285  and  _286
REMARK  114  A    between atoms: _285  and  _288
REMARK  115  A    between atoms: _288  and  _289
REMARK  116  A    between atoms: _299  and  _301
REMARK  117  A    between atoms: _301  and  _302
REMARK  118  A    between atoms: _301  and  _304
REMARK  119  A    between atoms: _304  and  _305
REMARK  120  A    between atoms: _308  and  _310
REMARK  121  A    between atoms: _310  and  _311
REMARK  122  A    between atoms: _310  and  _313
REMARK  123  A    between atoms: _313  and  _314
REMARK  124  A    between atoms: _314  and  _315
REMARK  125  A    between atoms: _318  and  _320
REMARK  126  A    between atoms: _320  and  _321
REMARK  127  A    between atoms: _320  and  _323
REMARK  128  A    between atoms: _323  and  _324
REMARK  129  A    between atoms: _326  and  _328
REMARK  130  A    between atoms: _328  and  _329
REMARK  131  A    between atoms: _328  and  _331
REMARK  132  A    between atoms: _331  and  _332
REMARK  133  A    between atoms: _335  and  _337
REMARK  134  A    between atoms: _337  and  _338
REMARK  135  A    between atoms: _340  and  _342
REMARK  136  A    between atoms: _342  and  _343
REMARK  137  A    between atoms: _342  and  _345
REMARK  138  A    between atoms: _345  and  _346
REMARK  139  A    between atoms: _356  and  _358
REMARK  140  A    between atoms: _358  and  _359
REMARK  141  A    between atoms: _358  and  _361
REMARK  142  A    between atoms: _361  and  _362
REMARK  143  A    between atoms: _362  and  _363
REMARK  144  A    between atoms: _363  and  _364
REMARK  145  A    between atoms: _373  and  _375
REMARK  146  A    between atoms: _375  and  _376
REMARK  147  A    between atoms: _375  and  _378
REMARK  148  A    between atoms: _378  and  _379
REMARK  149  A    between atoms: _379  and  _380
REMARK  150  A    between atoms: _380  and  _381
REMARK  151  A    between atoms: _381  and  _382
REMARK  152  A    between atoms: _386  and  _388
REMARK  153  A    between atoms: _388  and  _389
REMARK  154  A    between atoms: _388  and  _391
REMARK  155  A    between atoms: _391  and  _392
REMARK  156  A    between atoms: _392  and  _393
REMARK  157  A    between atoms: _398  and  _400
REMARK  158  A    between atoms: _400  and  _401
REMARK  159  A    between atoms: _400  and  _403
REMARK  160  A    between atoms: _403  and  _404
REMARK                            x       y       z     vdW  Elec       q    Type
REMARK                         _______ _______ _______ _____ _____    ______ ____
ROOT
ATOM      1  C   ALA A   3      23.523  17.999  22.840  0.00  0.00    +0.241 C 
ATOM      2  N   ILE A   4      23.224  18.694  23.927  0.00  0.00    -0.297 N 
ATOM      3  H   ILE A   4      22.382  19.305  23.943  0.00  0.00    +0.150 HD
ATOM      4  O   ALA A   3      24.424  17.167  22.829  0.00  0.00    -0.273 OA
ENDROOT
BRANCH   1   5
ATOM      5  CA  ALA A   3      22.694  18.265  21.588  0.00  0.00    +0.149 C 
ATOM      6  CB  ALA A   3      23.468  19.207  20.649  0.00  0.00    +0.031 C 
BRANCH   5   8
ATOM      7  C   ASP A   2      20.258  18.296  21.356  0.00  0.00    +0.241 C 
ATOM      8  N   ALA A   3      21.371  18.820  21.868  0.00  0.00    -0.297 N 
ATOM      9  H   ALA A   3      21.296  19.652  22.488  0.00  0.00    +0.150 HD
ATOM     10  O   ASP A   2      20.229  17.236  20.701  0.00  0.00    -0.273 OA
BRANCH   7  11
ATOM     11  CA  ASP A   2      18.987  19.068  21.647  0.00  0.00    +0.160 C 
BRANCH  11  13
ATOM     12  C   ARG A   1      19.552  21.006  20.252  0.00  0.00    +0.238 C 
ATOM     13  N   ASP A   2      19.142  20.503  21.415  0.00  0.00    -0.297 N 
ATOM     14  H   ASP A   2      18.923  21.159  22.191  0.00  0.00    +0.150 HD
ATOM     15  O   ARG A   1      19.991  20.310  19.329  0.00  0.00    -0.274 OA
BRANCH  12  16
ATOM     16  CA  ARG A   1      19.441  22.526  20.108  0.00  0.00    +0.145 C 
BRANCH  16  17
ATOM     17  N   ARG A   1      20.745  23.164  20.178  0.00  0.00    -0.238 NA
ATOM     18  H   ARG A   1      21.471  22.900  19.481  0.00  0.00    +0.142 HD
ENDBRANCH  16  17
BRANCH  16  19
ATOM     19  CB  ARG A   1      18.761  22.880  18.778  0.00  0.00    +0.030 C 
BRANCH  19  20
ATOM     20  CG  ARG A   1      18.532  24.392  18.555  0.00  0.00    +0.045 C 
BRANCH  20  21
ATOM     21  CD  ARG A   1      17.444  24.935  19.491  0.00  0.00    +0.174 C 
BRANCH  21  22
ATOM     22  NE  ARG A   1      16.428  23.909  19.652  0.00  0.00    -0.265 N 
ATOM     23  HE  ARG A   1      16.402  23.382  20.548  0.00  0.00    +0.259 HD
ATOM     24  CZ  ARG A   1      15.529  23.604  18.720  0.00  0.00    +0.342 C 
ATOM     25  NH2 ARG A   1      14.673  22.611  18.917  0.00  0.00    -0.292 N 
ATOM     26 HH21 ARG A   1      14.703  22.067  19.803  0.00  0.00    +0.255 HD
ATOM     27 HH22 ARG A   1      13.972  22.376  18.186  0.00  0.00    +0.255 HD
ATOM     28  NH1 ARG A   1      15.502  24.286  17.583  0.00  0.00    -0.292 N 
ATOM     29 HH11 ARG A   1      16.182  25.056  17.422  0.00  0.00    +0.255 HD
ATOM     30 HH12 ARG A   1      14.801  24.051  16.852  0.00  0.00    +0.255 HD
ENDBRANCH  21  22
ENDBRANCH  20  21
ENDBRANCH  19  20
ENDBRANCH  16  19
ENDBRANCH  12  16
ENDBRANCH  11  13
BRANCH  11  31
ATOM     31  CB  ASP A   2      17.812  18.515  20.842  0.00  0.00    +0.143 C 
BRANCH  31  32
ATOM     32  CG  ASP A   2      16.526  19.282  21.092  0.00  0.00    +0.367 C 
ATOM     33  OD2 ASP A   2      16.381  19.923  22.161  0.00  0.00    -0.246 OA
ATOM     34  OD1 ASP A   2      15.651  19.252  20.205  0.00  0.00    -0.246 OA
ENDBRANCH  31  32
ENDBRANCH  11  31
ENDBRANCH   7  11
ENDBRANCH   5   8
ENDBRANCH   1   5
BRANCH   2  35
ATOM     35  CA  ILE A   4      24.086  18.597  25.106  0.00  0.00    +0.149 C 
BRANCH  35  36
ATOM     36  C   ILE A   4      23.754  17.363  25.966  0.00  0.00    +0.241 C 
ATOM     37  O   ILE A   4      24.557  16.932  26.794  0.00  0.00    -0.273 OA
ATOM     38  N   LEU A   5      22.610  16.756  25.683  0.00  0.00    -0.297 N 
ATOM     39  H   LEU A   5      21.976  17.188  24.981  0.00  0.00    +0.150 HD
BRANCH  38  40
ATOM     40  CA  LEU A   5      22.203  15.503  26.319  0.00  0.00    +0.149 C 
BRANCH  40  41
ATOM     41  C   LEU A   5      23.214  14.362  26.150  0.00  0.00    +0.241 C 
ATOM     42  O   LEU A   5      23.196  13.404  26.923  0.00  0.00    -0.273 OA
ATOM     43  N   HIS A   6      24.085  14.443  25.146  0.00  0.00    -0.298 N 
ATOM     44  H   HIS A   6      24.048  15.254  24.496  0.00  0.00    +0.150 HD
BRANCH  43  45
ATOM     45  CA  HIS A   6      25.094  13.402  24.949  0.00  0.00    +0.143 C 
BRANCH  45  46
ATOM     46  C   HIS A   6      26.235  13.492  25.957  0.00  0.00    +0.227 C 
ATOM     47  O   HIS A   6      26.968  12.521  26.162  0.00  0.00    -0.286 OA
ENDBRANCH  45  46
BRANCH  45  48
ATOM     48  CB  HIS A   6      25.678  13.484  23.539  0.00  0.00    +0.075 C 
BRANCH  48  49
ATOM     49  CG  HIS A   6      24.665  13.290  22.462  0.00  0.00    +0.082 A 
ATOM     50  ND1 HIS A   6      24.067  12.073  22.209  0.00  0.00    -0.227 NA
ATOM     51  CE1 HIS A   6      23.206  12.209  21.217  0.00  0.00    +0.199 A 
ATOM     52  NE2 HIS A   6      23.234  13.468  20.810  0.00  0.00    -0.221 NA
ATOM     53  CD2 HIS A   6      24.138  14.163  21.572  0.00  0.00    +0.115 A 
ENDBRANCH  48  49
ENDBRANCH  45  48
ENDBRANCH  43  45
ENDBRANCH  40  41
BRANCH  40  54
ATOM     54  CB  LEU A   5      20.829  15.060  25.788  0.00  0.00    +0.029 C 
BRANCH  54  55
ATOM     55  CG  LEU A   5      20.746  14.470  24.373  0.00  0.00    +0.002 C 
ATOM     56  CD2 LEU A   5      19.308  14.124  24.043  0.00  0.00    +0.000 C 
ATOM     57  CD1 LEU A   5      21.274  15.437  23.328  0.00  0.00    +0.000 C 
ENDBRANCH  54  55
ENDBRANCH  40  54
ENDBRANCH  38  40
ENDBRANCH  35  36
BRANCH  35  58
ATOM     58  CB  ILE A   4      24.101  19.946  25.851  0.00  0.00    +0.027 C 
ATOM     59  CG2 ILE A   4      24.766  19.846  27.223  0.00  0.00    +0.002 C 
BRANCH  58  60
ATOM     60  CG1 ILE A   4      24.852  20.950  24.972  0.00  0.00    +0.002 C 
ATOM     61  CD1 ILE A   4      24.677  22.406  25.374  0.00  0.00    +0.000 C 
ENDBRANCH  58  60
ENDBRANCH  35  58
ENDBRANCH   2  35
TORSDOF 24
REMARK  Name = ../refined-set-2016/3ujd/3ujd_pocket.pdb
REMARK  160 active torsions:
REMARK  status: ('A' for Active; 'I' for Inactive)
REMARK    1  A    between atoms: _1  and  _3
REMARK    2  A    between atoms: _3  and  _4
REMARK    3  A    between atoms: _3  and  _6
REMARK    4  A    between atoms: _6  and  _7
REMARK    5  A    between atoms: _7  and  _8
REMARK    6  A    between atoms: _13  and  _15
REMARK    7  A    between atoms: _15  and  _16
REMARK    8  A    between atoms: _15  and  _18
REMARK    9  A    between atoms: _18  and  _19
REMARK   10  A    between atoms: _25  and  _27
REMARK   11  A    between atoms: _27  and  _28
REMARK   12  A    between atoms: _30  and  _32
REMARK   13  A    between atoms: _32  and  _33
REMARK   14  A    between atoms: _32  and  _35
REMARK   15  A    between atoms: _35  and  _36
REMARK   16  A    between atoms: _41  and  _42
REMARK   17  A    between atoms: _44  and  _46
REMARK   18  A    between atoms: _46  and  _47
REMARK   19  A    between atoms: _46  and  _49
REMARK   20  A    between atoms: _49  and  _50
REMARK   21  A    between atoms: _53  and  _55
REMARK   22  A    between atoms: _55  and  _56
REMARK   23  A    between atoms: _55  and  _58
REMARK   24  A    between atoms: _58  and  _59
REMARK   25  A    between atoms: _65  and  _67
REMARK   26  A    between atoms: _67  and  _68
REMARK   27  A    between atoms: _67  and  _70
REMARK   28  A    between atoms: _70  and  _71
REMARK   29  A    between atoms: _76  and  _77
REMARK   30  A    between atoms: _79  and  _81
REMARK   31  A    between atoms: _81  and  _82
REMARK   32  A    between atoms: _81  and  _84
REMARK   33  A    between atoms: _84  and  _85
REMARK   34  A    between atoms: _88  and  _90
REMARK   35  A    between atoms: _90  and  _91
REMARK   36  A    between atoms: _90  and  _93
REMARK   37  A    between atoms: _93  and  _94
REMARK   38  A    between atoms: _96  and  _98
REMARK   39  A    between atoms: _98  and  _99
REMARK   40  A    between atoms: _98  and  _101
REMARK   41  A    between atoms: _101  and  _102
REMARK   42  A    between atoms: _104  and  _106
REMARK   43  A    between atoms: _106  and  _107
REMARK   44  A    between atoms: _109  and  _111
REMARK   45  A    between atoms: _111  and  _112
REMARK   46  A    between atoms: _114  and  _116
REMARK   47  A    between atoms: _116  and  _117
REMARK   48  A    between atoms: _119  and  _121
REMARK   49  A    between atoms: _121  and  _122
REMARK   50  A    between atoms: _124  and  _126
REMARK   51  A    between atoms: _126  and  _127
REMARK   52  A    between atoms: _126  and  _129
REMARK   53  A    between atoms: _129  and  _130
REMARK   54  A    between atoms: _130  and  _131
REMARK   55  A    between atoms: _131  and  _132
REMARK   56  A    between atoms: _141  and  _143
REMARK   57  A    between atoms: _143  and  _144
REMARK   58  A    between atoms: _143  and  _146
REMARK   59  A    between atoms: _146  and  _147
REMARK   60  A    between atoms: _150  and  _152
REMARK   61  A    between atoms: _152  and  _153
REMARK   62  A    between atoms: _156  and  _158
REMARK   63  A    between atoms: _158  and  _159
REMARK   64  A    between atoms: _158  and  _161
REMARK   65  A    between atoms: _161  and  _162
REMARK   66  A    between atoms: _165  and  _167
REMARK   67  A    between atoms: _167  and  _168
REMARK   68  A    between atoms: _167  and  _170
REMARK   69  A    between atoms: _170  and  _171
REMARK   70  A    between atoms: _174  and  _176
REMARK   71  A    between atoms: _176  and  _177
REMARK   72  A    between atoms: _176  and  _179
REMARK   73  A    between atoms: _179  and  _180
REMARK   74  A    between atoms: _185  and  _187
REMARK   75  A    between atoms: _187  and  _188
REMARK   76  A    between atoms: _187  and  _190
REMARK   77  A    between atoms: _190  and  _191
REMARK   78  A    between atoms: _194  and  _196
REMARK   79  A    between atoms: _196  and  _197
REMARK   80  A    between atoms: _196  and  _199
REMARK   81  A    between atoms: _199  and  _200
REMARK   82  A    between atoms: _203  and  _205
REMARK   83  A    between atoms: _205  and  _206
REMARK   84  A    between atoms: _205  and  _208
REMARK   85  A    between atoms: _208  and  _209
REMARK   86  A    between atoms: _214  and  _215
REMARK   87  A    between atoms: _217  and  _219
REMARK   88  A    between atoms: _219  and  _220
REMARK   89  A    between atoms: _219  and  _222
REMARK   90  A    between atoms: _222  and  _223
REMARK   91  A    between atoms: _228  and  _229
REMARK   92  A    between atoms: _231  and  _233
REMARK   93  A    between atoms: _233  and  _234
REMARK   94  A    between atoms: _233  and  _236
REMARK   95  A    between atoms: _236  and  _237
REMARK   96  A    between atoms: _237  and  _238
REMARK   97  A    between atoms: _243  and  _245
REMARK   98  A    between atoms: _245  and  _246
REMARK   99  A    between atoms: _245  and  _248
REMARK  100  A    between atoms: _248  and  _249
REMARK  101  A    between atoms: _249  and  _250
REMARK  102  A    between atoms: _250  and  _251
REMARK  103  A    between atoms: _260  and  _262
REMARK  104  A    between atoms: _262  and  _263
REMARK  105  A    between atoms: _262  and  _265
REMARK  106  A    between atoms: _265  and  _266
REMARK  107  A    between atoms: _271  and  _272
REMARK  108  A    between atoms: _274  and  _276
REMARK  109  A    between atoms: _276  and  _277
REMARK  110  A    between atoms: _276  and  _279
REMARK  111  A    between atoms: _279  and  _280
REMARK  112  A    between atoms: _283  and  _285
REMARK  113  A    between atoms: _285  and  _286
REMARK  114  A    between atoms: _285  and  _288
REMARK  115  A    between atoms: _288  and  _289
REMARK  116  A    between atoms: _299  and  _301
REMARK  117  A    between atoms: _301  and  _302
REMARK  118  A    between atoms: _301  and  _304
REMARK  119  A    between atoms: _304  and  _305
REMARK  120  A    between atoms: _308  and  _310
REMARK  121  A    between atoms: _310  and  _311
REMARK  122  A    between atoms: _310  and  _313
REMARK  123  A    between atoms: _313  and  _314
REMARK  124  A    between atoms: _314  and  _315
REMARK  125  A    between atoms: _318  and  _320
REMARK  126  A    between atoms: _320  and  _321
REMARK  127  A    between atoms: _320  and  _323
REMARK  128  A    between atoms: _323  and  _324
REMARK  129  A    between atoms: _326  and  _328
REMARK  130  A    between atoms: _328  and  _329
REMARK  131  A    between atoms: _328  and  _331
REMARK  132  A    between atoms: _331  and  _332
REMARK  133  A    between atoms: _335  and  _337
REMARK  134  A    between atoms: _337  and  _338
REMARK  135  A    between atoms: _340  and  _342
REMARK  136  A    between atoms: _342  and  _343
REMARK  137  A    between atoms: _342  and  _345
REMARK  138  A    between atoms: _345  and  _346
REMARK  139  A    between atoms: _356  and  _358
REMARK  140  A    between atoms: _358  and  _359
REMARK  141  A    between atoms: _358  and  _361
REMARK  142  A    between atoms: _361  and  _362
REMARK  143  A    between atoms: _362  and  _363
REMARK  144  A    between atoms: _363  and  _364
REMARK  145  A    between atoms: _373  and  _375
REMARK  146  A    between atoms: _375  and  _376
REMARK  147  A    between atoms: _375  and  _378
REMARK  148  A    between atoms: _378  and  _379
REMARK  149  A    between atoms: _379  and  _380
REMARK  150  A    between atoms: _380  and  _381
REMARK  151  A    between atoms: _381  and  _382
REMARK  152  A    between atoms: _386  and  _388
REMARK  153  A    between atoms: _388  and  _389
REMARK  154  A    between atoms: _388  and  _391
REMARK  155  A    between atoms: _391  and  _392
REMARK  156  A    between atoms: _392  and  _393
REMARK  157  A    between atoms: _398  and  _400
REMARK  158  A    between atoms: _400  and  _401
REMARK  159  A    between atoms: _400  and  _403
REMARK  160  A    between atoms: _403  and  _404
REMARK                            x       y       z     vdW  Elec       q    Type
REMARK                         _______ _______ _______ _____ _____    ______ ____
ROOT
ATOM      1  CA  ASP A   2      17.824  20.138  25.574  0.00  0.00    +0.160 C 
ENDROOT
BRANCH   1   3
ATOM      2  C   THR A   1      17.722  22.268  24.493  0.00  0.00    +0.241 C 
ATOM      3  N   ASP A   2      17.217  21.444  25.398  0.00  0.00    -0.297 N 
ATOM      4  H   ASP A   2      16.399  21.728  25.973  0.00  0.00    +0.150 HD
ATOM      5  O   THR A   1      18.733  21.993  23.838  0.00  0.00    -0.274 OA
BRANCH   2   6
ATOM      6  CA  THR A   1      17.024  23.597  24.317  0.00  0.00    +0.172 C 
BRANCH   6   7
ATOM      7  N   THR A   1      18.055  24.561  23.925  0.00  0.00    -0.236 NA
ATOM      8  H   THR A   1      18.585  24.431  23.040  0.00  0.00    +0.142 HD
ENDBRANCH   6   7
BRANCH   6   9
ATOM      9  CB  THR A   1      15.870  23.426  23.304  0.00  0.00    +0.135 C 
ATOM     10  CG2 THR A   1      15.263  24.763  22.924  0.00  0.00    +0.034 C 
BRANCH   9  11
ATOM     11  OG1 THR A   1      16.338  22.738  22.131  0.00  0.00    -0.383 OA
ATOM     12  HG1 THR A   1      16.680  21.845  22.388  0.00  0.00    +0.210 HD
ENDBRANCH   9  11
ENDBRANCH   6   9
ENDBRANCH   2   6
ENDBRANCH   1   3
BRANCH   1  13
ATOM     13  C   ASP A   2      16.822  19.169  26.171  0.00  0.00    +0.241 C 
ATOM     14  O   ASP A   2      15.871  19.557  26.842  0.00  0.00    -0.273 OA
ATOM     15  N   TYR A   3      17.066  17.893  25.929  0.00  0.00    -0.298 N 
ATOM     16  H   TYR A   3      17.839  17.638  25.282  0.00  0.00    +0.150 HD
BRANCH  15  17
ATOM     17  CA  TYR A   3      16.285  16.842  26.542  0.00  0.00    +0.141 C 
BRANCH  17  18
ATOM     18  C   TYR A   3      16.615  16.805  28.016  0.00  0.00    +0.227 C 
ATOM     19  O   TYR A   3      17.800  16.796  28.392  0.00  0.00    -0.286 OA
ENDBRANCH  17  18
BRANCH  17  20
ATOM     20  CB  TYR A   3      16.649  15.489  25.927  0.00  0.00    +0.054 C 
BRANCH  20  21
ATOM     21  CG  TYR A   3      16.029  15.179  24.578  0.00  0.00    -0.020 A 
ATOM     22  CD2 TYR A   3      15.936  13.858  24.152  0.00  0.00    -0.001 A 
ATOM     23  CE2 TYR A   3      15.381  13.524  22.926  0.00  0.00    +0.036 A 
ATOM     24  CZ  TYR A   3      14.906  14.519  22.109  0.00  0.00    +0.134 A 
ATOM     25  CE1 TYR A   3      14.977  15.845  22.501  0.00  0.00    +0.036 A 
ATOM     26  CD1 TYR A   3      15.544  16.174  23.739  0.00  0.00    -0.001 A 
BRANCH  24  27
ATOM     27  OH  TYR A   3      14.346  14.181  20.899  0.00  0.00    -0.506 OA
ATOM     28  HH  TYR A   3      13.565  13.591  21.051  0.00  0.00    +0.292 HD
ENDBRANCH  24  27
ENDBRANCH  20  21
ENDBRANCH  17  20
ENDBRANCH  15  17
ENDBRANCH   1  13
BRANCH   1  29
ATOM     29  CB  ASP A   2      19.038  20.256  26.495  0.00  0.00    +0.143 C 
BRANCH  29  30
ATOM     30  CG  ASP A   2      20.130  19.237  26.195  0.00  0.00    +0.367 C 
ATOM     31  OD2 ASP A   2      21.185  19.329  26.854  0.00  0.00    -0.246 OA
ATOM     32  OD1 ASP A   2      19.969  18.362  25.314  0.00  0.00    -0.246 OA
ENDBRANCH  29  30
ENDBRANCH   1  29
TORSDOF 13
REMARK  Name = ../refined-set-2016/3ujd/3ujd_pocket.pdb
REMARK  160 active torsions:
REMARK  status: ('A' for Active; 'I' for Inactive)
REMARK    1  A    between atoms: _1  and  _3
REMARK    2  A    between atoms: _3  and  _4
REMARK    3  A    between atoms: _3  and  _6
REMARK    4  A    between atoms: _6  and  _7
REMARK    5  A    between atoms: _7  and  _8
REMARK    6  A    between atoms: _13  and  _15
REMARK    7  A    between atoms: _15  and  _16
REMARK    8  A    between atoms: _15  and  _18
REMARK    9  A    between atoms: _18  and  _19
REMARK   10  A    between atoms: _25  and  _27
REMARK   11  A    between atoms: _27  and  _28
REMARK   12  A    between atoms: _30  and  _32
REMARK   13  A    between atoms: _32  and  _33
REMARK   14  A    between atoms: _32  and  _35
REMARK   15  A    between atoms: _35  and  _36
REMARK   16  A    between atoms: _41  and  _42
REMARK   17  A    between atoms: _44  and  _46
REMARK   18  A    between atoms: _46  and  _47
REMARK   19  A    between atoms: _46  and  _49
REMARK   20  A    between atoms: _49  and  _50
REMARK   21  A    between atoms: _53  and  _55
REMARK   22  A    between atoms: _55  and  _56
REMARK   23  A    between atoms: _55  and  _58
REMARK   24  A    between atoms: _58  and  _59
REMARK   25  A    between atoms: _65  and  _67
REMARK   26  A    between atoms: _67  and  _68
REMARK   27  A    between atoms: _67  and  _70
REMARK   28  A    between atoms: _70  and  _71
REMARK   29  A    between atoms: _76  and  _77
REMARK   30  A    between atoms: _79  and  _81
REMARK   31  A    between atoms: _81  and  _82
REMARK   32  A    between atoms: _81  and  _84
REMARK   33  A    between atoms: _84  and  _85
REMARK   34  A    between atoms: _88  and  _90
REMARK   35  A    between atoms: _90  and  _91
REMARK   36  A    between atoms: _90  and  _93
REMARK   37  A    between atoms: _93  and  _94
REMARK   38  A    between atoms: _96  and  _98
REMARK   39  A    between atoms: _98  and  _99
REMARK   40  A    between atoms: _98  and  _101
REMARK   41  A    between atoms: _101  and  _102
REMARK   42  A    between atoms: _104  and  _106
REMARK   43  A    between atoms: _106  and  _107
REMARK   44  A    between atoms: _109  and  _111
REMARK   45  A    between atoms: _111  and  _112
REMARK   46  A    between atoms: _114  and  _116
REMARK   47  A    between atoms: _116  and  _117
REMARK   48  A    between atoms: _119  and  _121
REMARK   49  A    between atoms: _121  and  _122
REMARK   50  A    between atoms: _124  and  _126
REMARK   51  A    between atoms: _126  and  _127
REMARK   52  A    between atoms: _126  and  _129
REMARK   53  A    between atoms: _129  and  _130
REMARK   54  A    between atoms: _130  and  _131
REMARK   55  A    between atoms: _131  and  _132
REMARK   56  A    between atoms: _141  and  _143
REMARK   57  A    between atoms: _143  and  _144
REMARK   58  A    between atoms: _143  and  _146
REMARK   59  A    between atoms: _146  and  _147
REMARK   60  A    between atoms: _150  and  _152
REMARK   61  A    between atoms: _152  and  _153
REMARK   62  A    between atoms: _156  and  _158
REMARK   63  A    between atoms: _158  and  _159
REMARK   64  A    between atoms: _158  and  _161
REMARK   65  A    between atoms: _161  and  _162
REMARK   66  A    between atoms: _165  and  _167
REMARK   67  A    between atoms: _167  and  _168
REMARK   68  A    between atoms: _167  and  _170
REMARK   69  A    between atoms: _170  and  _171
REMARK   70  A    between atoms: _174  and  _176
REMARK   71  A    between atoms: _176  and  _177
REMARK   72  A    between atoms: _176  and  _179
REMARK   73  A    between atoms: _179  and  _180
REMARK   74  A    between atoms: _185  and  _187
REMARK   75  A    between atoms: _187  and  _188
REMARK   76  A    between atoms: _187  and  _190
REMARK   77  A    between atoms: _190  and  _191
REMARK   78  A    between atoms: _194  and  _196
REMARK   79  A    between atoms: _196  and  _197
REMARK   80  A    between atoms: _196  and  _199
REMARK   81  A    between atoms: _199  and  _200
REMARK   82  A    between atoms: _203  and  _205
REMARK   83  A    between atoms: _205  and  _206
REMARK   84  A    between atoms: _205  and  _208
REMARK   85  A    between atoms: _208  and  _209
REMARK   86  A    between atoms: _214  and  _215
REMARK   87  A    between atoms: _217  and  _219
REMARK   88  A    between atoms: _219  and  _220
REMARK   89  A    between atoms: _219  and  _222
REMARK   90  A    between atoms: _222  and  _223
REMARK   91  A    between atoms: _228  and  _229
REMARK   92  A    between atoms: _231  and  _233
REMARK   93  A    between atoms: _233  and  _234
REMARK   94  A    between atoms: _233  and  _236
REMARK   95  A    between atoms: _236  and  _237
REMARK   96  A    between atoms: _237  and  _238
REMARK   97  A    between atoms: _243  and  _245
REMARK   98  A    between atoms: _245  and  _246
REMARK   99  A    between atoms: _245  and  _248
REMARK  100  A    between atoms: _248  and  _249
REMARK  101  A    between atoms: _249  and  _250
REMARK  102  A    between atoms: _250  and  _251
REMARK  103  A    between atoms: _260  and  _262
REMARK  104  A    between atoms: _262  and  _263
REMARK  105  A    between atoms: _262  and  _265
REMARK  106  A    between atoms: _265  and  _266
REMARK  107  A    between atoms: _271  and  _272
REMARK  108  A    between atoms: _274  and  _276
REMARK  109  A    between atoms: _276  and  _277
REMARK  110  A    between atoms: _276  and  _279
REMARK  111  A    between atoms: _279  and  _280
REMARK  112  A    between atoms: _283  and  _285
REMARK  113  A    between atoms: _285  and  _286
REMARK  114  A    between atoms: _285  and  _288
REMARK  115  A    between atoms: _288  and  _289
REMARK  116  A    between atoms: _299  and  _301
REMARK  117  A    between atoms: _301  and  _302
REMARK  118  A    between atoms: _301  and  _304
REMARK  119  A    between atoms: _304  and  _305
REMARK  120  A    between atoms: _308  and  _310
REMARK  121  A    between atoms: _310  and  _311
REMARK  122  A    between atoms: _310  and  _313
REMARK  123  A    between atoms: _313  and  _314
REMARK  124  A    between atoms: _314  and  _315
REMARK  125  A    between atoms: _318  and  _320
REMARK  126  A    between atoms: _320  and  _321
REMARK  127  A    between atoms: _320  and  _323
REMARK  128  A    between atoms: _323  and  _324
REMARK  129  A    between atoms: _326  and  _328
REMARK  130  A    between atoms: _328  and  _329
REMARK  131  A    between atoms: _328  and  _331
REMARK  132  A    between atoms: _331  and  _332
REMARK  133  A    between atoms: _335  and  _337
REMARK  134  A    between atoms: _337  and  _338
REMARK  135  A    between atoms: _340  and  _342
REMARK  136  A    between atoms: _342  and  _343
REMARK  137  A    between atoms: _342  and  _345
REMARK  138  A    between atoms: _345  and  _346
REMARK  139  A    between atoms: _356  and  _358
REMARK  140  A    between atoms: _358  and  _359
REMARK  141  A    between atoms: _358  and  _361
REMARK  142  A    between atoms: _361  and  _362
REMARK  143  A    between atoms: _362  and  _363
REMARK  144  A    between atoms: _363  and  _364
REMARK  145  A    between atoms: _373  and  _375
REMARK  146  A    between atoms: _375  and  _376
REMARK  147  A    between atoms: _375  and  _378
REMARK  148  A    between atoms: _378  and  _379
REMARK  149  A    between atoms: _379  and  _380
REMARK  150  A    between atoms: _380  and  _381
REMARK  151  A    between atoms: _381  and  _382
REMARK  152  A    between atoms: _386  and  _388
REMARK  153  A    between atoms: _388  and  _389
REMARK  154  A    between atoms: _388  and  _391
REMARK  155  A    between atoms: _391  and  _392
REMARK  156  A    between atoms: _392  and  _393
REMARK  157  A    between atoms: _398  and  _400
REMARK  158  A    between atoms: _400  and  _401
REMARK  159  A    between atoms: _400  and  _403
REMARK  160  A    between atoms: _403  and  _404
REMARK                            x       y       z     vdW  Elec       q    Type
REMARK                         _______ _______ _______ _____ _____    ______ ____
ROOT
ATOM      1  CG  TYR A   1      14.744   6.522  25.497  0.00  0.00    -0.020 A 
ATOM      2  CD2 TYR A   1      14.763   7.704  26.227  0.00  0.00    -0.001 A 
ATOM      3  CE2 TYR A   1      14.863   8.937  25.612  0.00  0.00    +0.036 A 
ATOM      4  CZ  TYR A   1      14.909   9.011  24.243  0.00  0.00    +0.134 A 
ATOM      5  CE1 TYR A   1      14.884   7.854  23.485  0.00  0.00    +0.036 A 
ATOM      6  CD1 TYR A   1      14.790   6.616  24.111  0.00  0.00    -0.001 A 
ENDROOT
BRANCH   4   7
ATOM      7  OH  TYR A   1      14.981  10.248  23.645  0.00  0.00    -0.506 OA
ATOM      8  HH  TYR A   1      15.007  10.137  22.662  0.00  0.00    +0.292 HD
ENDBRANCH   4   7
BRANCH   1   9
ATOM      9  CB  TYR A   1      14.597   5.191  26.190  0.00  0.00    +0.051 C 
BRANCH   9  10
ATOM     10  CA  TYR A   1      15.846   4.318  26.289  0.00  0.00    +0.137 C 
BRANCH  10  11
ATOM     11  N   TYR A   1      15.626   3.297  27.310  0.00  0.00    -0.239 NA
ATOM     12  H   TYR A   1      14.730   3.295  27.839  0.00  0.00    +0.142 HD
ENDBRANCH  10  11
BRANCH  10  13
ATOM     13  C   TYR A   1      17.081   5.153  26.614  0.00  0.00    +0.224 C 
ATOM     14  O   TYR A   1      17.957   5.315  25.778  0.00  0.00    -0.287 OA
ENDBRANCH  10  13
ENDBRANCH   9  10
ENDBRANCH   1   9
TORSDOF 5
REMARK  Name = ../refined-set-2016/3ujd/3ujd_pocket.pdb
REMARK  160 active torsions:
REMARK  status: ('A' for Active; 'I' for Inactive)
REMARK    1  A    between atoms: _1  and  _3
REMARK    2  A    between atoms: _3  and  _4
REMARK    3  A    between atoms: _3  and  _6
REMARK    4  A    between atoms: _6  and  _7
REMARK    5  A    between atoms: _7  and  _8
REMARK    6  A    between atoms: _13  and  _15
REMARK    7  A    between atoms: _15  and  _16
REMARK    8  A    between atoms: _15  and  _18
REMARK    9  A    between atoms: _18  and  _19
REMARK   10  A    between atoms: _25  and  _27
REMARK   11  A    between atoms: _27  and  _28
REMARK   12  A    between atoms: _30  and  _32
REMARK   13  A    between atoms: _32  and  _33
REMARK   14  A    between atoms: _32  and  _35
REMARK   15  A    between atoms: _35  and  _36
REMARK   16  A    between atoms: _41  and  _42
REMARK   17  A    between atoms: _44  and  _46
REMARK   18  A    between atoms: _46  and  _47
REMARK   19  A    between atoms: _46  and  _49
REMARK   20  A    between atoms: _49  and  _50
REMARK   21  A    between atoms: _53  and  _55
REMARK   22  A    between atoms: _55  and  _56
REMARK   23  A    between atoms: _55  and  _58
REMARK   24  A    between atoms: _58  and  _59
REMARK   25  A    between atoms: _65  and  _67
REMARK   26  A    between atoms: _67  and  _68
REMARK   27  A    between atoms: _67  and  _70
REMARK   28  A    between atoms: _70  and  _71
REMARK   29  A    between atoms: _76  and  _77
REMARK   30  A    between atoms: _79  and  _81
REMARK   31  A    between atoms: _81  and  _82
REMARK   32  A    between atoms: _81  and  _84
REMARK   33  A    between atoms: _84  and  _85
REMARK   34  A    between atoms: _88  and  _90
REMARK   35  A    between atoms: _90  and  _91
REMARK   36  A    between atoms: _90  and  _93
REMARK   37  A    between atoms: _93  and  _94
REMARK   38  A    between atoms: _96  and  _98
REMARK   39  A    between atoms: _98  and  _99
REMARK   40  A    between atoms: _98  and  _101
REMARK   41  A    between atoms: _101  and  _102
REMARK   42  A    between atoms: _104  and  _106
REMARK   43  A    between atoms: _106  and  _107
REMARK   44  A    between atoms: _109  and  _111
REMARK   45  A    between atoms: _111  and  _112
REMARK   46  A    between atoms: _114  and  _116
REMARK   47  A    between atoms: _116  and  _117
REMARK   48  A    between atoms: _119  and  _121
REMARK   49  A    between atoms: _121  and  _122
REMARK   50  A    between atoms: _124  and  _126
REMARK   51  A    between atoms: _126  and  _127
REMARK   52  A    between atoms: _126  and  _129
REMARK   53  A    between atoms: _129  and  _130
REMARK   54  A    between atoms: _130  and  _131
REMARK   55  A    between atoms: _131  and  _132
REMARK   56  A    between atoms: _141  and  _143
REMARK   57  A    between atoms: _143  and  _144
REMARK   58  A    between atoms: _143  and  _146
REMARK   59  A    between atoms: _146  and  _147
REMARK   60  A    between atoms: _150  and  _152
REMARK   61  A    between atoms: _152  and  _153
REMARK   62  A    between atoms: _156  and  _158
REMARK   63  A    between atoms: _158  and  _159
REMARK   64  A    between atoms: _158  and  _161
REMARK   65  A    between atoms: _161  and  _162
REMARK   66  A    between atoms: _165  and  _167
REMARK   67  A    between atoms: _167  and  _168
REMARK   68  A    between atoms: _167  and  _170
REMARK   69  A    between atoms: _170  and  _171
REMARK   70  A    between atoms: _174  and  _176
REMARK   71  A    between atoms: _176  and  _177
REMARK   72  A    between atoms: _176  and  _179
REMARK   73  A    between atoms: _179  and  _180
REMARK   74  A    between atoms: _185  and  _187
REMARK   75  A    between atoms: _187  and  _188
REMARK   76  A    between atoms: _187  and  _190
REMARK   77  A    between atoms: _190  and  _191
REMARK   78  A    between atoms: _194  and  _196
REMARK   79  A    between atoms: _196  and  _197
REMARK   80  A    between atoms: _196  and  _199
REMARK   81  A    between atoms: _199  and  _200
REMARK   82  A    between atoms: _203  and  _205
REMARK   83  A    between atoms: _205  and  _206
REMARK   84  A    between atoms: _205  and  _208
REMARK   85  A    between atoms: _208  and  _209
REMARK   86  A    between atoms: _214  and  _215
REMARK   87  A    between atoms: _217  and  _219
REMARK   88  A    between atoms: _219  and  _220
REMARK   89  A    between atoms: _219  and  _222
REMARK   90  A    between atoms: _222  and  _223
REMARK   91  A    between atoms: _228  and  _229
REMARK   92  A    between atoms: _231  and  _233
REMARK   93  A    between atoms: _233  and  _234
REMARK   94  A    between atoms: _233  and  _236
REMARK   95  A    between atoms: _236  and  _237
REMARK   96  A    between atoms: _237  and  _238
REMARK   97  A    between atoms: _243  and  _245
REMARK   98  A    between atoms: _245  and  _246
REMARK   99  A    between atoms: _245  and  _248
REMARK  100  A    between atoms: _248  and  _249
REMARK  101  A    between atoms: _249  and  _250
REMARK  102  A    between atoms: _250  and  _251
REMARK  103  A    between atoms: _260  and  _262
REMARK  104  A    between atoms: _262  and  _263
REMARK  105  A    between atoms: _262  and  _265
REMARK  106  A    between atoms: _265  and  _266
REMARK  107  A    between atoms: _271  and  _272
REMARK  108  A    between atoms: _274  and  _276
REMARK  109  A    between atoms: _276  and  _277
REMARK  110  A    between atoms: _276  and  _279
REMARK  111  A    between atoms: _279  and  _280
REMARK  112  A    between atoms: _283  and  _285
REMARK  113  A    between atoms: _285  and  _286
REMARK  114  A    between atoms: _285  and  _288
REMARK  115  A    between atoms: _288  and  _289
REMARK  116  A    between atoms: _299  and  _301
REMARK  117  A    between atoms: _301  and  _302
REMARK  118  A    between atoms: _301  and  _304
REMARK  119  A    between atoms: _304  and  _305
REMARK  120  A    between atoms: _308  and  _310
REMARK  121  A    between atoms: _310  and  _311
REMARK  122  A    between atoms: _310  and  _313
REMARK  123  A    between atoms: _313  and  _314
REMARK  124  A    between atoms: _314  and  _315
REMARK  125  A    between atoms: _318  and  _320
REMARK  126  A    between atoms: _320  and  _321
REMARK  127  A    between atoms: _320  and  _323
REMARK  128  A    between atoms: _323  and  _324
REMARK  129  A    between atoms: _326  and  _328
REMARK  130  A    between atoms: _328  and  _329
REMARK  131  A    between atoms: _328  and  _331
REMARK  132  A    between atoms: _331  and  _332
REMARK  133  A    between atoms: _335  and  _337
REMARK  134  A    between atoms: _337  and  _338
REMARK  135  A    between atoms: _340  and  _342
REMARK  136  A    between atoms: _342  and  _343
REMARK  137  A    between atoms: _342  and  _345
REMARK  138  A    between atoms: _345  and  _346
REMARK  139  A    between atoms: _356  and  _358
REMARK  140  A    between atoms: _358  and  _359
REMARK  141  A    between atoms: _358  and  _361
REMARK  142  A    between atoms: _361  and  _362
REMARK  143  A    between atoms: _362  and  _363
REMARK  144  A    between atoms: _363  and  _364
REMARK  145  A    between atoms: _373  and  _375
REMARK  146  A    between atoms: _375  and  _376
REMARK  147  A    between atoms: _375  and  _378
REMARK  148  A    between atoms: _378  and  _379
REMARK  149  A    between atoms: _379  and  _380
REMARK  150  A    between atoms: _380  and  _381
REMARK  151  A    between atoms: _381  and  _382
REMARK  152  A    between atoms: _386  and  _388
REMARK  153  A    between atoms: _388  and  _389
REMARK  154  A    between atoms: _388  and  _391
REMARK  155  A    between atoms: _391  and  _392
REMARK  156  A    between atoms: _392  and  _393
REMARK  157  A    between atoms: _398  and  _400
REMARK  158  A    between atoms: _400  and  _401
REMARK  159  A    between atoms: _400  and  _403
REMARK  160  A    between atoms: _403  and  _404
REMARK                            x       y       z     vdW  Elec       q    Type
REMARK                         _______ _______ _______ _____ _____    ______ ____
ROOT
ATOM      1  CA  ARG A   2      21.031   6.299  23.760  0.00  0.00    +0.137 C 
ENDROOT
BRANCH   1   3
ATOM      2  C   GLN A   1      21.144   3.884  24.102  0.00  0.00    +0.238 C 
ATOM      3  N   ARG A   2      20.586   5.058  24.391  0.00  0.00    -0.298 N 
ATOM      4  H   ARG A   2      19.812   5.093  25.085  0.00  0.00    +0.150 HD
ATOM      5  O   GLN A   1      22.070   3.760  23.303  0.00  0.00    -0.274 OA
BRANCH   2   6
ATOM      6  CA  GLN A   1      20.583   2.668  24.839  0.00  0.00    +0.145 C 
BRANCH   6   7
ATOM      7  N   GLN A   1      20.270   2.987  26.228  0.00  0.00    -0.238 NA
ATOM      8  H   GLN A   1      19.280   2.953  26.544  0.00  0.00    +0.142 HD
ENDBRANCH   6   7
BRANCH   6   9
ATOM      9  CB  GLN A   1      19.333   2.146  24.128  0.00  0.00    +0.036 C 
BRANCH   9  10
ATOM     10  CG  GLN A   1      19.573   1.652  22.707  0.00  0.00    +0.087 C 
BRANCH  10  11
ATOM     11  CD  GLN A   1      19.461   2.750  21.667  0.00  0.00    +0.219 C 
ATOM     12  OE1 GLN A   1      19.074   3.875  21.977  0.00  0.00    -0.275 OA
ATOM     13  NE2 GLN A   1      19.793   2.424  20.421  0.00  0.00    -0.329 N 
ATOM     14 HE21 GLN A   1      20.116   1.459  20.204  0.00  0.00    +0.145 HD
ATOM     15 HE22 GLN A   1      19.730   3.134  19.663  0.00  0.00    +0.145 HD
ENDBRANCH  10  11
ENDBRANCH   9  10
ENDBRANCH   6   9
ENDBRANCH   2   6
ENDBRANCH   1   3
BRANCH   1  16
ATOM     16  C   ARG A   2      22.330   6.829  24.364  0.00  0.00    +0.227 C 
ATOM     17  O   ARG A   2      22.993   7.677  23.757  0.00  0.00    -0.286 OA
ENDBRANCH   1  16
BRANCH   1  18
ATOM     18  CB  ARG A   2      19.958   7.381  23.912  0.00  0.00    +0.031 C 
BRANCH  18  19
ATOM     19  CG  ARG A   2      18.677   7.172  23.103  0.00  0.00    +0.045 C 
BRANCH  19  20
ATOM     20  CD  ARG A   2      18.889   7.467  21.617  0.00  0.00    +0.174 C 
BRANCH  20  21
ATOM     21  NE  ARG A   2      17.611   7.672  20.929  0.00  0.00    -0.265 N 
ATOM     22  HE  ARG A   2      17.287   8.653  20.811  0.00  0.00    +0.259 HD
ATOM     23  CZ  ARG A   2      16.828   6.709  20.442  0.00  0.00    +0.342 C 
ATOM     24  NH2 ARG A   2      17.189   5.429  20.521  0.00  0.00    -0.292 N 
ATOM     25 HH21 ARG A   2      18.092   5.170  20.967  0.00  0.00    +0.255 HD
ATOM     26 HH22 ARG A   2      16.568   4.689  20.137  0.00  0.00    +0.255 HD
ATOM     27  NH1 ARG A   2      15.679   7.024  19.857  0.00  0.00    -0.292 N 
ATOM     28 HH11 ARG A   2      15.391   8.020  19.779  0.00  0.00    +0.255 HD
ATOM     29 HH12 ARG A   2      15.067   6.275  19.476  0.00  0.00    +0.255 HD
ENDBRANCH  20  21
ENDBRANCH  19  20
ENDBRANCH  18  19
ENDBRANCH   1  18
TORSDOF 11
REMARK  Name = ../refined-set-2016/3ujd/3ujd_pocket.pdb
REMARK  160 active torsions:
REMARK  status: ('A' for Active; 'I' for Inactive)
REMARK    1  A    between atoms: _1  and  _3
REMARK    2  A    between atoms: _3  and  _4
REMARK    3  A    between atoms: _3  and  _6
REMARK    4  A    between atoms: _6  and  _7
REMARK    5  A    between atoms: _7  and  _8
REMARK    6  A    between atoms: _13  and  _15
REMARK    7  A    between atoms: _15  and  _16
REMARK    8  A    between atoms: _15  and  _18
REMARK    9  A    between atoms: _18  and  _19
REMARK   10  A    between atoms: _25  and  _27
REMARK   11  A    between atoms: _27  and  _28
REMARK   12  A    between atoms: _30  and  _32
REMARK   13  A    between atoms: _32  and  _33
REMARK   14  A    between atoms: _32  and  _35
REMARK   15  A    between atoms: _35  and  _36
REMARK   16  A    between atoms: _41  and  _42
REMARK   17  A    between atoms: _44  and  _46
REMARK   18  A    between atoms: _46  and  _47
REMARK   19  A    between atoms: _46  and  _49
REMARK   20  A    between atoms: _49  and  _50
REMARK   21  A    between atoms: _53  and  _55
REMARK   22  A    between atoms: _55  and  _56
REMARK   23  A    between atoms: _55  and  _58
REMARK   24  A    between atoms: _58  and  _59
REMARK   25  A    between atoms: _65  and  _67
REMARK   26  A    between atoms: _67  and  _68
REMARK   27  A    between atoms: _67  and  _70
REMARK   28  A    between atoms: _70  and  _71
REMARK   29  A    between atoms: _76  and  _77
REMARK   30  A    between atoms: _79  and  _81
REMARK   31  A    between atoms: _81  and  _82
REMARK   32  A    between atoms: _81  and  _84
REMARK   33  A    between atoms: _84  and  _85
REMARK   34  A    between atoms: _88  and  _90
REMARK   35  A    between atoms: _90  and  _91
REMARK   36  A    between atoms: _90  and  _93
REMARK   37  A    between atoms: _93  and  _94
REMARK   38  A    between atoms: _96  and  _98
REMARK   39  A    between atoms: _98  and  _99
REMARK   40  A    between atoms: _98  and  _101
REMARK   41  A    between atoms: _101  and  _102
REMARK   42  A    between atoms: _104  and  _106
REMARK   43  A    between atoms: _106  and  _107
REMARK   44  A    between atoms: _109  and  _111
REMARK   45  A    between atoms: _111  and  _112
REMARK   46  A    between atoms: _114  and  _116
REMARK   47  A    between atoms: _116  and  _117
REMARK   48  A    between atoms: _119  and  _121
REMARK   49  A    between atoms: _121  and  _122
REMARK   50  A    between atoms: _124  and  _126
REMARK   51  A    between atoms: _126  and  _127
REMARK   52  A    between atoms: _126  and  _129
REMARK   53  A    between atoms: _129  and  _130
REMARK   54  A    between atoms: _130  and  _131
REMARK   55  A    between atoms: _131  and  _132
REMARK   56  A    between atoms: _141  and  _143
REMARK   57  A    between atoms: _143  and  _144
REMARK   58  A    between atoms: _143  and  _146
REMARK   59  A    between atoms: _146  and  _147
REMARK   60  A    between atoms: _150  and  _152
REMARK   61  A    between atoms: _152  and  _153
REMARK   62  A    between atoms: _156  and  _158
REMARK   63  A    between atoms: _158  and  _159
REMARK   64  A    between atoms: _158  and  _161
REMARK   65  A    between atoms: _161  and  _162
REMARK   66  A    between atoms: _165  and  _167
REMARK   67  A    between atoms: _167  and  _168
REMARK   68  A    between atoms: _167  and  _170
REMARK   69  A    between atoms: _170  and  _171
REMARK   70  A    between atoms: _174  and  _176
REMARK   71  A    between atoms: _176  and  _177
REMARK   72  A    between atoms: _176  and  _179
REMARK   73  A    between atoms: _179  and  _180
REMARK   74  A    between atoms: _185  and  _187
REMARK   75  A    between atoms: _187  and  _188
REMARK   76  A    between atoms: _187  and  _190
REMARK   77  A    between atoms: _190  and  _191
REMARK   78  A    between atoms: _194  and  _196
REMARK   79  A    between atoms: _196  and  _197
REMARK   80  A    between atoms: _196  and  _199
REMARK   81  A    between atoms: _199  and  _200
REMARK   82  A    between atoms: _203  and  _205
REMARK   83  A    between atoms: _205  and  _206
REMARK   84  A    between atoms: _205  and  _208
REMARK   85  A    between atoms: _208  and  _209
REMARK   86  A    between atoms: _214  and  _215
REMARK   87  A    between atoms: _217  and  _219
REMARK   88  A    between atoms: _219  and  _220
REMARK   89  A    between atoms: _219  and  _222
REMARK   90  A    between atoms: _222  and  _223
REMARK   91  A    between atoms: _228  and  _229
REMARK   92  A    between atoms: _231  and  _233
REMARK   93  A    between atoms: _233  and  _234
REMARK   94  A    between atoms: _233  and  _236
REMARK   95  A    between atoms: _236  and  _237
REMARK   96  A    between atoms: _237  and  _238
REMARK   97  A    between atoms: _243  and  _245
REMARK   98  A    between atoms: _245  and  _246
REMARK   99  A    between atoms: _245  and  _248
REMARK  100  A    between atoms: _248  and  _249
REMARK  101  A    between atoms: _249  and  _250
REMARK  102  A    between atoms: _250  and  _251
REMARK  103  A    between atoms: _260  and  _262
REMARK  104  A    between atoms: _262  and  _263
REMARK  105  A    between atoms: _262  and  _265
REMARK  106  A    between atoms: _265  and  _266
REMARK  107  A    between atoms: _271  and  _272
REMARK  108  A    between atoms: _274  and  _276
REMARK  109  A    between atoms: _276  and  _277
REMARK  110  A    between atoms: _276  and  _279
REMARK  111  A    between atoms: _279  and  _280
REMARK  112  A    between atoms: _283  and  _285
REMARK  113  A    between atoms: _285  and  _286
REMARK  114  A    between atoms: _285  and  _288
REMARK  115  A    between atoms: _288  and  _289
REMARK  116  A    between atoms: _299  and  _301
REMARK  117  A    between atoms: _301  and  _302
REMARK  118  A    between atoms: _301  and  _304
REMARK  119  A    between atoms: _304  and  _305
REMARK  120  A    between atoms: _308  and  _310
REMARK  121  A    between atoms: _310  and  _311
REMARK  122  A    between atoms: _310  and  _313
REMARK  123  A    between atoms: _313  and  _314
REMARK  124  A    between atoms: _314  and  _315
REMARK  125  A    between atoms: _318  and  _320
REMARK  126  A    between atoms: _320  and  _321
REMARK  127  A    between atoms: _320  and  _323
REMARK  128  A    between atoms: _323  and  _324
REMARK  129  A    between atoms: _326  and  _328
REMARK  130  A    between atoms: _328  and  _329
REMARK  131  A    between atoms: _328  and  _331
REMARK  132  A    between atoms: _331  and  _332
REMARK  133  A    between atoms: _335  and  _337
REMARK  134  A    between atoms: _337  and  _338
REMARK  135  A    between atoms: _340  and  _342
REMARK  136  A    between atoms: _342  and  _343
REMARK  137  A    between atoms: _342  and  _345
REMARK  138  A    between atoms: _345  and  _346
REMARK  139  A    between atoms: _356  and  _358
REMARK  140  A    between atoms: _358  and  _359
REMARK  141  A    between atoms: _358  and  _361
REMARK  142  A    between atoms: _361  and  _362
REMARK  143  A    between atoms: _362  and  _363
REMARK  144  A    between atoms: _363  and  _364
REMARK  145  A    between atoms: _373  and  _375
REMARK  146  A    between atoms: _375  and  _376
REMARK  147  A    between atoms: _375  and  _378
REMARK  148  A    between atoms: _378  and  _379
REMARK  149  A    between atoms: _379  and  _380
REMARK  150  A    between atoms: _380  and  _381
REMARK  151  A    between atoms: _381  and  _382
REMARK  152  A    between atoms: _386  and  _388
REMARK  153  A    between atoms: _388  and  _389
REMARK  154  A    between atoms: _388  and  _391
REMARK  155  A    between atoms: _391  and  _392
REMARK  156  A    between atoms: _392  and  _393
REMARK  157  A    between atoms: _398  and  _400
REMARK  158  A    between atoms: _400  and  _401
REMARK  159  A    between atoms: _400  and  _403
REMARK  160  A    between atoms: _403  and  _404
REMARK                            x       y       z     vdW  Elec       q    Type
REMARK                         _______ _______ _______ _____ _____    ______ ____
ROOT
ATOM      1  CG  TYR A   1      20.187  10.603  25.677  0.00  0.00    -0.020 A 
ATOM      2  CD2 TYR A   1      18.832  10.492  25.427  0.00  0.00    -0.001 A 
ATOM      3  CE2 TYR A   1      18.321  10.634  24.158  0.00  0.00    +0.036 A 
ATOM      4  CZ  TYR A   1      19.173  10.878  23.108  0.00  0.00    +0.134 A 
ATOM      5  CE1 TYR A   1      20.535  10.985  23.316  0.00  0.00    +0.036 A 
ATOM      6  CD1 TYR A   1      21.042  10.853  24.606  0.00  0.00    -0.001 A 
ENDROOT
BRANCH   4   7
ATOM      7  OH  TYR A   1      18.615  11.013  21.852  0.00  0.00    -0.506 OA
ATOM      8  HH  TYR A   1      18.137  10.180  21.613  0.00  0.00    +0.292 HD
ENDBRANCH   4   7
BRANCH   1   9
ATOM      9  CB  TYR A   1      20.691  10.473  27.093  0.00  0.00    +0.051 C 
BRANCH   9  10
ATOM     10  CA  TYR A   1      22.168  10.149  27.274  0.00  0.00    +0.137 C 
BRANCH  10  11
ATOM     11  N   TYR A   1      22.414   8.787  26.842  0.00  0.00    -0.239 NA
ATOM     12  H   TYR A   1      21.610   8.159  26.640  0.00  0.00    +0.142 HD
ENDBRANCH  10  11
BRANCH  10  13
ATOM     13  C   TYR A   1      22.460  10.321  28.756  0.00  0.00    +0.224 C 
ATOM     14  O   TYR A   1      22.326   9.381  29.544  0.00  0.00    -0.287 OA
ENDBRANCH  10  13
ENDBRANCH   9  10
ENDBRANCH   1   9
TORSDOF 5
REMARK  Name = ../refined-set-2016/3ujd/3ujd_pocket.pdb
REMARK  160 active torsions:
REMARK  status: ('A' for Active; 'I' for Inactive)
REMARK    1  A    between atoms: _1  and  _3
REMARK    2  A    between atoms: _3  and  _4
REMARK    3  A    between atoms: _3  and  _6
REMARK    4  A    between atoms: _6  and  _7
REMARK    5  A    between atoms: _7  and  _8
REMARK    6  A    between atoms: _13  and  _15
REMARK    7  A    between atoms: _15  and  _16
REMARK    8  A    between atoms: _15  and  _18
REMARK    9  A    between atoms: _18  and  _19
REMARK   10  A    between atoms: _25  and  _27
REMARK   11  A    between atoms: _27  and  _28
REMARK   12  A    between atoms: _30  and  _32
REMARK   13  A    between atoms: _32  and  _33
REMARK   14  A    between atoms: _32  and  _35
REMARK   15  A    between atoms: _35  and  _36
REMARK   16  A    between atoms: _41  and  _42
REMARK   17  A    between atoms: _44  and  _46
REMARK   18  A    between atoms: _46  and  _47
REMARK   19  A    between atoms: _46  and  _49
REMARK   20  A    between atoms: _49  and  _50
REMARK   21  A    between atoms: _53  and  _55
REMARK   22  A    between atoms: _55  and  _56
REMARK   23  A    between atoms: _55  and  _58
REMARK   24  A    between atoms: _58  and  _59
REMARK   25  A    between atoms: _65  and  _67
REMARK   26  A    between atoms: _67  and  _68
REMARK   27  A    between atoms: _67  and  _70
REMARK   28  A    between atoms: _70  and  _71
REMARK   29  A    between atoms: _76  and  _77
REMARK   30  A    between atoms: _79  and  _81
REMARK   31  A    between atoms: _81  and  _82
REMARK   32  A    between atoms: _81  and  _84
REMARK   33  A    between atoms: _84  and  _85
REMARK   34  A    between atoms: _88  and  _90
REMARK   35  A    between atoms: _90  and  _91
REMARK   36  A    between atoms: _90  and  _93
REMARK   37  A    between atoms: _93  and  _94
REMARK   38  A    between atoms: _96  and  _98
REMARK   39  A    between atoms: _98  and  _99
REMARK   40  A    between atoms: _98  and  _101
REMARK   41  A    between atoms: _101  and  _102
REMARK   42  A    between atoms: _104  and  _106
REMARK   43  A    between atoms: _106  and  _107
REMARK   44  A    between atoms: _109  and  _111
REMARK   45  A    between atoms: _111  and  _112
REMARK   46  A    between atoms: _114  and  _116
REMARK   47  A    between atoms: _116  and  _117
REMARK   48  A    between atoms: _119  and  _121
REMARK   49  A    between atoms: _121  and  _122
REMARK   50  A    between atoms: _124  and  _126
REMARK   51  A    between atoms: _126  and  _127
REMARK   52  A    between atoms: _126  and  _129
REMARK   53  A    between atoms: _129  and  _130
REMARK   54  A    between atoms: _130  and  _131
REMARK   55  A    between atoms: _131  and  _132
REMARK   56  A    between atoms: _141  and  _143
REMARK   57  A    between atoms: _143  and  _144
REMARK   58  A    between atoms: _143  and  _146
REMARK   59  A    between atoms: _146  and  _147
REMARK   60  A    between atoms: _150  and  _152
REMARK   61  A    between atoms: _152  and  _153
REMARK   62  A    between atoms: _156  and  _158
REMARK   63  A    between atoms: _158  and  _159
REMARK   64  A    between atoms: _158  and  _161
REMARK   65  A    between atoms: _161  and  _162
REMARK   66  A    between atoms: _165  and  _167
REMARK   67  A    between atoms: _167  and  _168
REMARK   68  A    between atoms: _167  and  _170
REMARK   69  A    between atoms: _170  and  _171
REMARK   70  A    between atoms: _174  and  _176
REMARK   71  A    between atoms: _176  and  _177
REMARK   72  A    between atoms: _176  and  _179
REMARK   73  A    between atoms: _179  and  _180
REMARK   74  A    between atoms: _185  and  _187
REMARK   75  A    between atoms: _187  and  _188
REMARK   76  A    between atoms: _187  and  _190
REMARK   77  A    between atoms: _190  and  _191
REMARK   78  A    between atoms: _194  and  _196
REMARK   79  A    between atoms: _196  and  _197
REMARK   80  A    between atoms: _196  and  _199
REMARK   81  A    between atoms: _199  and  _200
REMARK   82  A    between atoms: _203  and  _205
REMARK   83  A    between atoms: _205  and  _206
REMARK   84  A    between atoms: _205  and  _208
REMARK   85  A    between atoms: _208  and  _209
REMARK   86  A    between atoms: _214  and  _215
REMARK   87  A    between atoms: _217  and  _219
REMARK   88  A    between atoms: _219  and  _220
REMARK   89  A    between atoms: _219  and  _222
REMARK   90  A    between atoms: _222  and  _223
REMARK   91  A    between atoms: _228  and  _229
REMARK   92  A    between atoms: _231  and  _233
REMARK   93  A    between atoms: _233  and  _234
REMARK   94  A    between atoms: _233  and  _236
REMARK   95  A    between atoms: _236  and  _237
REMARK   96  A    between atoms: _237  and  _238
REMARK   97  A    between atoms: _243  and  _245
REMARK   98  A    between atoms: _245  and  _246
REMARK   99  A    between atoms: _245  and  _248
REMARK  100  A    between atoms: _248  and  _249
REMARK  101  A    between atoms: _249  and  _250
REMARK  102  A    between atoms: _250  and  _251
REMARK  103  A    between atoms: _260  and  _262
REMARK  104  A    between atoms: _262  and  _263
REMARK  105  A    between atoms: _262  and  _265
REMARK  106  A    between atoms: _265  and  _266
REMARK  107  A    between atoms: _271  and  _272
REMARK  108  A    between atoms: _274  and  _276
REMARK  109  A    between atoms: _276  and  _277
REMARK  110  A    between atoms: _276  and  _279
REMARK  111  A    between atoms: _279  and  _280
REMARK  112  A    between atoms: _283  and  _285
REMARK  113  A    between atoms: _285  and  _286
REMARK  114  A    between atoms: _285  and  _288
REMARK  115  A    between atoms: _288  and  _289
REMARK  116  A    between atoms: _299  and  _301
REMARK  117  A    between atoms: _301  and  _302
REMARK  118  A    between atoms: _301  and  _304
REMARK  119  A    between atoms: _304  and  _305
REMARK  120  A    between atoms: _308  and  _310
REMARK  121  A    between atoms: _310  and  _311
REMARK  122  A    between atoms: _310  and  _313
REMARK  123  A    between atoms: _313  and  _314
REMARK  124  A    between atoms: _314  and  _315
REMARK  125  A    between atoms: _318  and  _320
REMARK  126  A    between atoms: _320  and  _321
REMARK  127  A    between atoms: _320  and  _323
REMARK  128  A    between atoms: _323  and  _324
REMARK  129  A    between atoms: _326  and  _328
REMARK  130  A    between atoms: _328  and  _329
REMARK  131  A    between atoms: _328  and  _331
REMARK  132  A    between atoms: _331  and  _332
REMARK  133  A    between atoms: _335  and  _337
REMARK  134  A    between atoms: _337  and  _338
REMARK  135  A    between atoms: _340  and  _342
REMARK  136  A    between atoms: _342  and  _343
REMARK  137  A    between atoms: _342  and  _345
REMARK  138  A    between atoms: _345  and  _346
REMARK  139  A    between atoms: _356  and  _358
REMARK  140  A    between atoms: _358  and  _359
REMARK  141  A    between atoms: _358  and  _361
REMARK  142  A    between atoms: _361  and  _362
REMARK  143  A    between atoms: _362  and  _363
REMARK  144  A    between atoms: _363  and  _364
REMARK  145  A    between atoms: _373  and  _375
REMARK  146  A    between atoms: _375  and  _376
REMARK  147  A    between atoms: _375  and  _378
REMARK  148  A    between atoms: _378  and  _379
REMARK  149  A    between atoms: _379  and  _380
REMARK  150  A    between atoms: _380  and  _381
REMARK  151  A    between atoms: _381  and  _382
REMARK  152  A    between atoms: _386  and  _388
REMARK  153  A    between atoms: _388  and  _389
REMARK  154  A    between atoms: _388  and  _391
REMARK  155  A    between atoms: _391  and  _392
REMARK  156  A    between atoms: _392  and  _393
REMARK  157  A    between atoms: _398  and  _400
REMARK  158  A    between atoms: _400  and  _401
REMARK  159  A    between atoms: _400  and  _403
REMARK  160  A    between atoms: _403  and  _404
REMARK                            x       y       z     vdW  Elec       q    Type
REMARK                         _______ _______ _______ _____ _____    ______ ____
ROOT
ATOM      1  CA  LEU A   1      19.364  13.469  31.300  0.00  0.00    +0.133 C 
ENDROOT
BRANCH   1   2
ATOM      2  N   LEU A   1      20.514  12.565  31.170  0.00  0.00    -0.239 NA
ATOM      3  H   LEU A   1      20.431  11.581  31.497  0.00  0.00    +0.142 HD
ENDBRANCH   1   2
BRANCH   1   4
ATOM      4  C   LEU A   1      19.201  13.914  32.741  0.00  0.00    +0.224 C 
ATOM      5  O   LEU A   1      19.032  13.088  33.641  0.00  0.00    -0.287 OA
ENDBRANCH   1   4
BRANCH   1   6
ATOM      6  CB  LEU A   1      18.068  12.804  30.832  0.00  0.00    +0.025 C 
BRANCH   6   7
ATOM      7  CG  LEU A   1      18.067  12.271  29.404  0.00  0.00    +0.002 C 
ATOM      8  CD2 LEU A   1      16.657  11.841  29.029  0.00  0.00    +0.000 C 
ATOM      9  CD1 LEU A   1      18.561  13.328  28.416  0.00  0.00    +0.000 C 
ENDBRANCH   6   7
ENDBRANCH   1   6
TORSDOF 4
REMARK  Name = ../refined-set-2016/3ujd/3ujd_pocket.pdb
REMARK  160 active torsions:
REMARK  status: ('A' for Active; 'I' for Inactive)
REMARK    1  A    between atoms: _1  and  _3
REMARK    2  A    between atoms: _3  and  _4
REMARK    3  A    between atoms: _3  and  _6
REMARK    4  A    between atoms: _6  and  _7
REMARK    5  A    between atoms: _7  and  _8
REMARK    6  A    between atoms: _13  and  _15
REMARK    7  A    between atoms: _15  and  _16
REMARK    8  A    between atoms: _15  and  _18
REMARK    9  A    between atoms: _18  and  _19
REMARK   10  A    between atoms: _25  and  _27
REMARK   11  A    between atoms: _27  and  _28
REMARK   12  A    between atoms: _30  and  _32
REMARK   13  A    between atoms: _32  and  _33
REMARK   14  A    between atoms: _32  and  _35
REMARK   15  A    between atoms: _35  and  _36
REMARK   16  A    between atoms: _41  and  _42
REMARK   17  A    between atoms: _44  and  _46
REMARK   18  A    between atoms: _46  and  _47
REMARK   19  A    between atoms: _46  and  _49
REMARK   20  A    between atoms: _49  and  _50
REMARK   21  A    between atoms: _53  and  _55
REMARK   22  A    between atoms: _55  and  _56
REMARK   23  A    between atoms: _55  and  _58
REMARK   24  A    between atoms: _58  and  _59
REMARK   25  A    between atoms: _65  and  _67
REMARK   26  A    between atoms: _67  and  _68
REMARK   27  A    between atoms: _67  and  _70
REMARK   28  A    between atoms: _70  and  _71
REMARK   29  A    between atoms: _76  and  _77
REMARK   30  A    between atoms: _79  and  _81
REMARK   31  A    between atoms: _81  and  _82
REMARK   32  A    between atoms: _81  and  _84
REMARK   33  A    between atoms: _84  and  _85
REMARK   34  A    between atoms: _88  and  _90
REMARK   35  A    between atoms: _90  and  _91
REMARK   36  A    between atoms: _90  and  _93
REMARK   37  A    between atoms: _93  and  _94
REMARK   38  A    between atoms: _96  and  _98
REMARK   39  A    between atoms: _98  and  _99
REMARK   40  A    between atoms: _98  and  _101
REMARK   41  A    between atoms: _101  and  _102
REMARK   42  A    between atoms: _104  and  _106
REMARK   43  A    between atoms: _106  and  _107
REMARK   44  A    between atoms: _109  and  _111
REMARK   45  A    between atoms: _111  and  _112
REMARK   46  A    between atoms: _114  and  _116
REMARK   47  A    between atoms: _116  and  _117
REMARK   48  A    between atoms: _119  and  _121
REMARK   49  A    between atoms: _121  and  _122
REMARK   50  A    between atoms: _124  and  _126
REMARK   51  A    between atoms: _126  and  _127
REMARK   52  A    between atoms: _126  and  _129
REMARK   53  A    between atoms: _129  and  _130
REMARK   54  A    between atoms: _130  and  _131
REMARK   55  A    between atoms: _131  and  _132
REMARK   56  A    between atoms: _141  and  _143
REMARK   57  A    between atoms: _143  and  _144
REMARK   58  A    between atoms: _143  and  _146
REMARK   59  A    between atoms: _146  and  _147
REMARK   60  A    between atoms: _150  and  _152
REMARK   61  A    between atoms: _152  and  _153
REMARK   62  A    between atoms: _156  and  _158
REMARK   63  A    between atoms: _158  and  _159
REMARK   64  A    between atoms: _158  and  _161
REMARK   65  A    between atoms: _161  and  _162
REMARK   66  A    between atoms: _165  and  _167
REMARK   67  A    between atoms: _167  and  _168
REMARK   68  A    between atoms: _167  and  _170
REMARK   69  A    between atoms: _170  and  _171
REMARK   70  A    between atoms: _174  and  _176
REMARK   71  A    between atoms: _176  and  _177
REMARK   72  A    between atoms: _176  and  _179
REMARK   73  A    between atoms: _179  and  _180
REMARK   74  A    between atoms: _185  and  _187
REMARK   75  A    between atoms: _187  and  _188
REMARK   76  A    between atoms: _187  and  _190
REMARK   77  A    between atoms: _190  and  _191
REMARK   78  A    between atoms: _194  and  _196
REMARK   79  A    between atoms: _196  and  _197
REMARK   80  A    between atoms: _196  and  _199
REMARK   81  A    between atoms: _199  and  _200
REMARK   82  A    between atoms: _203  and  _205
REMARK   83  A    between atoms: _205  and  _206
REMARK   84  A    between atoms: _205  and  _208
REMARK   85  A    between atoms: _208  and  _209
REMARK   86  A    between atoms: _214  and  _215
REMARK   87  A    between atoms: _217  and  _219
REMARK   88  A    between atoms: _219  and  _220
REMARK   89  A    between atoms: _219  and  _222
REMARK   90  A    between atoms: _222  and  _223
REMARK   91  A    between atoms: _228  and  _229
REMARK   92  A    between atoms: _231  and  _233
REMARK   93  A    between atoms: _233  and  _234
REMARK   94  A    between atoms: _233  and  _236
REMARK   95  A    between atoms: _236  and  _237
REMARK   96  A    between atoms: _237  and  _238
REMARK   97  A    between atoms: _243  and  _245
REMARK   98  A    between atoms: _245  and  _246
REMARK   99  A    between atoms: _245  and  _248
REMARK  100  A    between atoms: _248  and  _249
REMARK  101  A    between atoms: _249  and  _250
REMARK  102  A    between atoms: _250  and  _251
REMARK  103  A    between atoms: _260  and  _262
REMARK  104  A    between atoms: _262  and  _263
REMARK  105  A    between atoms: _262  and  _265
REMARK  106  A    between atoms: _265  and  _266
REMARK  107  A    between atoms: _271  and  _272
REMARK  108  A    between atoms: _274  and  _276
REMARK  109  A    between atoms: _276  and  _277
REMARK  110  A    between atoms: _276  and  _279
REMARK  111  A    between atoms: _279  and  _280
REMARK  112  A    between atoms: _283  and  _285
REMARK  113  A    between atoms: _285  and  _286
REMARK  114  A    between atoms: _285  and  _288
REMARK  115  A    between atoms: _288  and  _289
REMARK  116  A    between atoms: _299  and  _301
REMARK  117  A    between atoms: _301  and  _302
REMARK  118  A    between atoms: _301  and  _304
REMARK  119  A    between atoms: _304  and  _305
REMARK  120  A    between atoms: _308  and  _310
REMARK  121  A    between atoms: _310  and  _311
REMARK  122  A    between atoms: _310  and  _313
REMARK  123  A    between atoms: _313  and  _314
REMARK  124  A    between atoms: _314  and  _315
REMARK  125  A    between atoms: _318  and  _320
REMARK  126  A    between atoms: _320  and  _321
REMARK  127  A    between atoms: _320  and  _323
REMARK  128  A    between atoms: _323  and  _324
REMARK  129  A    between atoms: _326  and  _328
REMARK  130  A    between atoms: _328  and  _329
REMARK  131  A    between atoms: _328  and  _331
REMARK  132  A    between atoms: _331  and  _332
REMARK  133  A    between atoms: _335  and  _337
REMARK  134  A    between atoms: _337  and  _338
REMARK  135  A    between atoms: _340  and  _342
REMARK  136  A    between atoms: _342  and  _343
REMARK  137  A    between atoms: _342  and  _345
REMARK  138  A    between atoms: _345  and  _346
REMARK  139  A    between atoms: _356  and  _358
REMARK  140  A    between atoms: _358  and  _359
REMARK  141  A    between atoms: _358  and  _361
REMARK  142  A    between atoms: _361  and  _362
REMARK  143  A    between atoms: _362  and  _363
REMARK  144  A    between atoms: _363  and  _364
REMARK  145  A    between atoms: _373  and  _375
REMARK  146  A    between atoms: _375  and  _376
REMARK  147  A    between atoms: _375  and  _378
REMARK  148  A    between atoms: _378  and  _379
REMARK  149  A    between atoms: _379  and  _380
REMARK  150  A    between atoms: _380  and  _381
REMARK  151  A    between atoms: _381  and  _382
REMARK  152  A    between atoms: _386  and  _388
REMARK  153  A    between atoms: _388  and  _389
REMARK  154  A    between atoms: _388  and  _391
REMARK  155  A    between atoms: _391  and  _392
REMARK  156  A    between atoms: _392  and  _393
REMARK  157  A    between atoms: _398  and  _400
REMARK  158  A    between atoms: _400  and  _401
REMARK  159  A    between atoms: _400  and  _403
REMARK  160  A    between atoms: _403  and  _404
REMARK                            x       y       z     vdW  Elec       q    Type
REMARK                         _______ _______ _______ _____ _____    ______ ____
ROOT
ATOM      1  CG  TRP A   1       9.441  18.235  23.316  0.00  0.00    -0.002 A 
ATOM      2  CD2 TRP A   1       9.789  16.922  23.774  0.00  0.00    +0.013 A 
ATOM      3  CE3 TRP A   1       9.358  16.119  24.839  0.00  0.00    +0.001 A 
ATOM      4  CZ3 TRP A   1       9.916  14.851  24.988  0.00  0.00    +0.000 A 
ATOM      5  CH2 TRP A   1      10.884  14.378  24.097  0.00  0.00    +0.001 A 
ATOM      6  CZ2 TRP A   1      11.315  15.139  23.041  0.00  0.00    +0.017 A 
ATOM      7  CE2 TRP A   1      10.770  16.417  22.898  0.00  0.00    +0.056 A 
ATOM      8  NE1 TRP A   1      11.011  17.379  21.950  0.00  0.00    -0.352 N 
ATOM      9  HE1 TRP A   1      11.678  17.293  21.157  0.00  0.00    +0.166 HD
ATOM     10  CD1 TRP A   1      10.222  18.480  22.222  0.00  0.00    +0.068 A 
ENDROOT
BRANCH   1  11
ATOM     11  CB  TRP A   1       8.461  19.174  23.958  0.00  0.00    +0.053 C 
BRANCH  11  12
ATOM     12  CA  TRP A   1       7.385  19.726  23.019  0.00  0.00    +0.137 C 
BRANCH  12  13
ATOM     13  N   TRP A   1       6.682  20.835  23.655  0.00  0.00    -0.239 NA
ATOM     14  H   TRP A   1       6.946  21.126  24.618  0.00  0.00    +0.142 HD
ENDBRANCH  12  13
BRANCH  12  15
ATOM     15  C   TRP A   1       6.380  18.640  22.622  0.00  0.00    +0.224 C 
ATOM     16  O   TRP A   1       6.440  18.095  21.515  0.00  0.00    -0.287 OA
ENDBRANCH  12  15
ENDBRANCH  11  12
ENDBRANCH   1  11
TORSDOF 4
REMARK  Name = ../refined-set-2016/3ujd/3ujd_pocket.pdb
REMARK  160 active torsions:
REMARK  status: ('A' for Active; 'I' for Inactive)
REMARK    1  A    between atoms: _1  and  _3
REMARK    2  A    between atoms: _3  and  _4
REMARK    3  A    between atoms: _3  and  _6
REMARK    4  A    between atoms: _6  and  _7
REMARK    5  A    between atoms: _7  and  _8
REMARK    6  A    between atoms: _13  and  _15
REMARK    7  A    between atoms: _15  and  _16
REMARK    8  A    between atoms: _15  and  _18
REMARK    9  A    between atoms: _18  and  _19
REMARK   10  A    between atoms: _25  and  _27
REMARK   11  A    between atoms: _27  and  _28
REMARK   12  A    between atoms: _30  and  _32
REMARK   13  A    between atoms: _32  and  _33
REMARK   14  A    between atoms: _32  and  _35
REMARK   15  A    between atoms: _35  and  _36
REMARK   16  A    between atoms: _41  and  _42
REMARK   17  A    between atoms: _44  and  _46
REMARK   18  A    between atoms: _46  and  _47
REMARK   19  A    between atoms: _46  and  _49
REMARK   20  A    between atoms: _49  and  _50
REMARK   21  A    between atoms: _53  and  _55
REMARK   22  A    between atoms: _55  and  _56
REMARK   23  A    between atoms: _55  and  _58
REMARK   24  A    between atoms: _58  and  _59
REMARK   25  A    between atoms: _65  and  _67
REMARK   26  A    between atoms: _67  and  _68
REMARK   27  A    between atoms: _67  and  _70
REMARK   28  A    between atoms: _70  and  _71
REMARK   29  A    between atoms: _76  and  _77
REMARK   30  A    between atoms: _79  and  _81
REMARK   31  A    between atoms: _81  and  _82
REMARK   32  A    between atoms: _81  and  _84
REMARK   33  A    between atoms: _84  and  _85
REMARK   34  A    between atoms: _88  and  _90
REMARK   35  A    between atoms: _90  and  _91
REMARK   36  A    between atoms: _90  and  _93
REMARK   37  A    between atoms: _93  and  _94
REMARK   38  A    between atoms: _96  and  _98
REMARK   39  A    between atoms: _98  and  _99
REMARK   40  A    between atoms: _98  and  _101
REMARK   41  A    between atoms: _101  and  _102
REMARK   42  A    between atoms: _104  and  _106
REMARK   43  A    between atoms: _106  and  _107
REMARK   44  A    between atoms: _109  and  _111
REMARK   45  A    between atoms: _111  and  _112
REMARK   46  A    between atoms: _114  and  _116
REMARK   47  A    between atoms: _116  and  _117
REMARK   48  A    between atoms: _119  and  _121
REMARK   49  A    between atoms: _121  and  _122
REMARK   50  A    between atoms: _124  and  _126
REMARK   51  A    between atoms: _126  and  _127
REMARK   52  A    between atoms: _126  and  _129
REMARK   53  A    between atoms: _129  and  _130
REMARK   54  A    between atoms: _130  and  _131
REMARK   55  A    between atoms: _131  and  _132
REMARK   56  A    between atoms: _141  and  _143
REMARK   57  A    between atoms: _143  and  _144
REMARK   58  A    between atoms: _143  and  _146
REMARK   59  A    between atoms: _146  and  _147
REMARK   60  A    between atoms: _150  and  _152
REMARK   61  A    between atoms: _152  and  _153
REMARK   62  A    between atoms: _156  and  _158
REMARK   63  A    between atoms: _158  and  _159
REMARK   64  A    between atoms: _158  and  _161
REMARK   65  A    between atoms: _161  and  _162
REMARK   66  A    between atoms: _165  and  _167
REMARK   67  A    between atoms: _167  and  _168
REMARK   68  A    between atoms: _167  and  _170
REMARK   69  A    between atoms: _170  and  _171
REMARK   70  A    between atoms: _174  and  _176
REMARK   71  A    between atoms: _176  and  _177
REMARK   72  A    between atoms: _176  and  _179
REMARK   73  A    between atoms: _179  and  _180
REMARK   74  A    between atoms: _185  and  _187
REMARK   75  A    between atoms: _187  and  _188
REMARK   76  A    between atoms: _187  and  _190
REMARK   77  A    between atoms: _190  and  _191
REMARK   78  A    between atoms: _194  and  _196
REMARK   79  A    between atoms: _196  and  _197
REMARK   80  A    between atoms: _196  and  _199
REMARK   81  A    between atoms: _199  and  _200
REMARK   82  A    between atoms: _203  and  _205
REMARK   83  A    between atoms: _205  and  _206
REMARK   84  A    between atoms: _205  and  _208
REMARK   85  A    between atoms: _208  and  _209
REMARK   86  A    between atoms: _214  and  _215
REMARK   87  A    between atoms: _217  and  _219
REMARK   88  A    between atoms: _219  and  _220
REMARK   89  A    between atoms: _219  and  _222
REMARK   90  A    between atoms: _222  and  _223
REMARK   91  A    between atoms: _228  and  _229
REMARK   92  A    between atoms: _231  and  _233
REMARK   93  A    between atoms: _233  and  _234
REMARK   94  A    between atoms: _233  and  _236
REMARK   95  A    between atoms: _236  and  _237
REMARK   96  A    between atoms: _237  and  _238
REMARK   97  A    between atoms: _243  and  _245
REMARK   98  A    between atoms: _245  and  _246
REMARK   99  A    between atoms: _245  and  _248
REMARK  100  A    between atoms: _248  and  _249
REMARK  101  A    between atoms: _249  and  _250
REMARK  102  A    between atoms: _250  and  _251
REMARK  103  A    between atoms: _260  and  _262
REMARK  104  A    between atoms: _262  and  _263
REMARK  105  A    between atoms: _262  and  _265
REMARK  106  A    between atoms: _265  and  _266
REMARK  107  A    between atoms: _271  and  _272
REMARK  108  A    between atoms: _274  and  _276
REMARK  109  A    between atoms: _276  and  _277
REMARK  110  A    between atoms: _276  and  _279
REMARK  111  A    between atoms: _279  and  _280
REMARK  112  A    between atoms: _283  and  _285
REMARK  113  A    between atoms: _285  and  _286
REMARK  114  A    between atoms: _285  and  _288
REMARK  115  A    between atoms: _288  and  _289
REMARK  116  A    between atoms: _299  and  _301
REMARK  117  A    between atoms: _301  and  _302
REMARK  118  A    between atoms: _301  and  _304
REMARK  119  A    between atoms: _304  and  _305
REMARK  120  A    between atoms: _308  and  _310
REMARK  121  A    between atoms: _310  and  _311
REMARK  122  A    between atoms: _310  and  _313
REMARK  123  A    between atoms: _313  and  _314
REMARK  124  A    between atoms: _314  and  _315
REMARK  125  A    between atoms: _318  and  _320
REMARK  126  A    between atoms: _320  and  _321
REMARK  127  A    between atoms: _320  and  _323
REMARK  128  A    between atoms: _323  and  _324
REMARK  129  A    between atoms: _326  and  _328
REMARK  130  A    between atoms: _328  and  _329
REMARK  131  A    between atoms: _328  and  _331
REMARK  132  A    between atoms: _331  and  _332
REMARK  133  A    between atoms: _335  and  _337
REMARK  134  A    between atoms: _337  and  _338
REMARK  135  A    between atoms: _340  and  _342
REMARK  136  A    between atoms: _342  and  _343
REMARK  137  A    between atoms: _342  and  _345
REMARK  138  A    between atoms: _345  and  _346
REMARK  139  A    between atoms: _356  and  _358
REMARK  140  A    between atoms: _358  and  _359
REMARK  141  A    between atoms: _358  and  _361
REMARK  142  A    between atoms: _361  and  _362
REMARK  143  A    between atoms: _362  and  _363
REMARK  144  A    between atoms: _363  and  _364
REMARK  145  A    between atoms: _373  and  _375
REMARK  146  A    between atoms: _375  and  _376
REMARK  147  A    between atoms: _375  and  _378
REMARK  148  A    between atoms: _378  and  _379
REMARK  149  A    between atoms: _379  and  _380
REMARK  150  A    between atoms: _380  and  _381
REMARK  151  A    between atoms: _381  and  _382
REMARK  152  A    between atoms: _386  and  _388
REMARK  153  A    between atoms: _388  and  _389
REMARK  154  A    between atoms: _388  and  _391
REMARK  155  A    between atoms: _391  and  _392
REMARK  156  A    between atoms: _392  and  _393
REMARK  157  A    between atoms: _398  and  _400
REMARK  158  A    between atoms: _400  and  _401
REMARK  159  A    between atoms: _400  and  _403
REMARK  160  A    between atoms: _403  and  _404
REMARK                            x       y       z     vdW  Elec       q    Type
REMARK                         _______ _______ _______ _____ _____    ______ ____
ROOT
ATOM      1  CA  LEU A   1       5.817  15.647  18.729  0.00  0.00    +0.133 C 
ENDROOT
BRANCH   1   2
ATOM      2  N   LEU A   1       5.761  17.090  18.965  0.00  0.00    -0.239 NA
ATOM      3  H   LEU A   1       5.799  17.441  19.943  0.00  0.00    +0.142 HD
ENDBRANCH   1   2
BRANCH   1   4
ATOM      4  C   LEU A   1       4.545  15.144  18.068  0.00  0.00    +0.224 C 
ATOM      5  O   LEU A   1       4.609  14.260  17.221  0.00  0.00    -0.287 OA
ENDBRANCH   1   4
BRANCH   1   6
ATOM      6  CB  LEU A   1       6.038  14.890  20.042  0.00  0.00    +0.025 C 
BRANCH   6   7
ATOM      7  CG  LEU A   1       7.421  15.016  20.702  0.00  0.00    +0.002 C 
ATOM      8  CD2 LEU A   1       7.330  14.646  22.165  0.00  0.00    +0.000 C 
ATOM      9  CD1 LEU A   1       8.429  14.127  19.987  0.00  0.00    +0.000 C 
ENDBRANCH   6   7
ENDBRANCH   1   6
TORSDOF 4
REMARK  Name = ../refined-set-2016/3ujd/3ujd_pocket.pdb
REMARK  160 active torsions:
REMARK  status: ('A' for Active; 'I' for Inactive)
REMARK    1  A    between atoms: _1  and  _3
REMARK    2  A    between atoms: _3  and  _4
REMARK    3  A    between atoms: _3  and  _6
REMARK    4  A    between atoms: _6  and  _7
REMARK    5  A    between atoms: _7  and  _8
REMARK    6  A    between atoms: _13  and  _15
REMARK    7  A    between atoms: _15  and  _16
REMARK    8  A    between atoms: _15  and  _18
REMARK    9  A    between atoms: _18  and  _19
REMARK   10  A    between atoms: _25  and  _27
REMARK   11  A    between atoms: _27  and  _28
REMARK   12  A    between atoms: _30  and  _32
REMARK   13  A    between atoms: _32  and  _33
REMARK   14  A    between atoms: _32  and  _35
REMARK   15  A    between atoms: _35  and  _36
REMARK   16  A    between atoms: _41  and  _42
REMARK   17  A    between atoms: _44  and  _46
REMARK   18  A    between atoms: _46  and  _47
REMARK   19  A    between atoms: _46  and  _49
REMARK   20  A    between atoms: _49  and  _50
REMARK   21  A    between atoms: _53  and  _55
REMARK   22  A    between atoms: _55  and  _56
REMARK   23  A    between atoms: _55  and  _58
REMARK   24  A    between atoms: _58  and  _59
REMARK   25  A    between atoms: _65  and  _67
REMARK   26  A    between atoms: _67  and  _68
REMARK   27  A    between atoms: _67  and  _70
REMARK   28  A    between atoms: _70  and  _71
REMARK   29  A    between atoms: _76  and  _77
REMARK   30  A    between atoms: _79  and  _81
REMARK   31  A    between atoms: _81  and  _82
REMARK   32  A    between atoms: _81  and  _84
REMARK   33  A    between atoms: _84  and  _85
REMARK   34  A    between atoms: _88  and  _90
REMARK   35  A    between atoms: _90  and  _91
REMARK   36  A    between atoms: _90  and  _93
REMARK   37  A    between atoms: _93  and  _94
REMARK   38  A    between atoms: _96  and  _98
REMARK   39  A    between atoms: _98  and  _99
REMARK   40  A    between atoms: _98  and  _101
REMARK   41  A    between atoms: _101  and  _102
REMARK   42  A    between atoms: _104  and  _106
REMARK   43  A    between atoms: _106  and  _107
REMARK   44  A    between atoms: _109  and  _111
REMARK   45  A    between atoms: _111  and  _112
REMARK   46  A    between atoms: _114  and  _116
REMARK   47  A    between atoms: _116  and  _117
REMARK   48  A    between atoms: _119  and  _121
REMARK   49  A    between atoms: _121  and  _122
REMARK   50  A    between atoms: _124  and  _126
REMARK   51  A    between atoms: _126  and  _127
REMARK   52  A    between atoms: _126  and  _129
REMARK   53  A    between atoms: _129  and  _130
REMARK   54  A    between atoms: _130  and  _131
REMARK   55  A    between atoms: _131  and  _132
REMARK   56  A    between atoms: _141  and  _143
REMARK   57  A    between atoms: _143  and  _144
REMARK   58  A    between atoms: _143  and  _146
REMARK   59  A    between atoms: _146  and  _147
REMARK   60  A    between atoms: _150  and  _152
REMARK   61  A    between atoms: _152  and  _153
REMARK   62  A    between atoms: _156  and  _158
REMARK   63  A    between atoms: _158  and  _159
REMARK   64  A    between atoms: _158  and  _161
REMARK   65  A    between atoms: _161  and  _162
REMARK   66  A    between atoms: _165  and  _167
REMARK   67  A    between atoms: _167  and  _168
REMARK   68  A    between atoms: _167  and  _170
REMARK   69  A    between atoms: _170  and  _171
REMARK   70  A    between atoms: _174  and  _176
REMARK   71  A    between atoms: _176  and  _177
REMARK   72  A    between atoms: _176  and  _179
REMARK   73  A    between atoms: _179  and  _180
REMARK   74  A    between atoms: _185  and  _187
REMARK   75  A    between atoms: _187  and  _188
REMARK   76  A    between atoms: _187  and  _190
REMARK   77  A    between atoms: _190  and  _191
REMARK   78  A    between atoms: _194  and  _196
REMARK   79  A    between atoms: _196  and  _197
REMARK   80  A    between atoms: _196  and  _199
REMARK   81  A    between atoms: _199  and  _200
REMARK   82  A    between atoms: _203  and  _205
REMARK   83  A    between atoms: _205  and  _206
REMARK   84  A    between atoms: _205  and  _208
REMARK   85  A    between atoms: _208  and  _209
REMARK   86  A    between atoms: _214  and  _215
REMARK   87  A    between atoms: _217  and  _219
REMARK   88  A    between atoms: _219  and  _220
REMARK   89  A    between atoms: _219  and  _222
REMARK   90  A    between atoms: _222  and  _223
REMARK   91  A    between atoms: _228  and  _229
REMARK   92  A    between atoms: _231  and  _233
REMARK   93  A    between atoms: _233  and  _234
REMARK   94  A    between atoms: _233  and  _236
REMARK   95  A    between atoms: _236  and  _237
REMARK   96  A    between atoms: _237  and  _238
REMARK   97  A    between atoms: _243  and  _245
REMARK   98  A    between atoms: _245  and  _246
REMARK   99  A    between atoms: _245  and  _248
REMARK  100  A    between atoms: _248  and  _249
REMARK  101  A    between atoms: _249  and  _250
REMARK  102  A    between atoms: _250  and  _251
REMARK  103  A    between atoms: _260  and  _262
REMARK  104  A    between atoms: _262  and  _263
REMARK  105  A    between atoms: _262  and  _265
REMARK  106  A    between atoms: _265  and  _266
REMARK  107  A    between atoms: _271  and  _272
REMARK  108  A    between atoms: _274  and  _276
REMARK  109  A    between atoms: _276  and  _277
REMARK  110  A    between atoms: _276  and  _279
REMARK  111  A    between atoms: _279  and  _280
REMARK  112  A    between atoms: _283  and  _285
REMARK  113  A    between atoms: _285  and  _286
REMARK  114  A    between atoms: _285  and  _288
REMARK  115  A    between atoms: _288  and  _289
REMARK  116  A    between atoms: _299  and  _301
REMARK  117  A    between atoms: _301  and  _302
REMARK  118  A    between atoms: _301  and  _304
REMARK  119  A    between atoms: _304  and  _305
REMARK  120  A    between atoms: _308  and  _310
REMARK  121  A    between atoms: _310  and  _311
REMARK  122  A    between atoms: _310  and  _313
REMARK  123  A    between atoms: _313  and  _314
REMARK  124  A    between atoms: _314  and  _315
REMARK  125  A    between atoms: _318  and  _320
REMARK  126  A    between atoms: _320  and  _321
REMARK  127  A    between atoms: _320  and  _323
REMARK  128  A    between atoms: _323  and  _324
REMARK  129  A    between atoms: _326  and  _328
REMARK  130  A    between atoms: _328  and  _329
REMARK  131  A    between atoms: _328  and  _331
REMARK  132  A    between atoms: _331  and  _332
REMARK  133  A    between atoms: _335  and  _337
REMARK  134  A    between atoms: _337  and  _338
REMARK  135  A    between atoms: _340  and  _342
REMARK  136  A    between atoms: _342  and  _343
REMARK  137  A    between atoms: _342  and  _345
REMARK  138  A    between atoms: _345  and  _346
REMARK  139  A    between atoms: _356  and  _358
REMARK  140  A    between atoms: _358  and  _359
REMARK  141  A    between atoms: _358  and  _361
REMARK  142  A    between atoms: _361  and  _362
REMARK  143  A    between atoms: _362  and  _363
REMARK  144  A    between atoms: _363  and  _364
REMARK  145  A    between atoms: _373  and  _375
REMARK  146  A    between atoms: _375  and  _376
REMARK  147  A    between atoms: _375  and  _378
REMARK  148  A    between atoms: _378  and  _379
REMARK  149  A    between atoms: _379  and  _380
REMARK  150  A    between atoms: _380  and  _381
REMARK  151  A    between atoms: _381  and  _382
REMARK  152  A    between atoms: _386  and  _388
REMARK  153  A    between atoms: _388  and  _389
REMARK  154  A    between atoms: _388  and  _391
REMARK  155  A    between atoms: _391  and  _392
REMARK  156  A    between atoms: _392  and  _393
REMARK  157  A    between atoms: _398  and  _400
REMARK  158  A    between atoms: _400  and  _401
REMARK  159  A    between atoms: _400  and  _403
REMARK  160  A    between atoms: _403  and  _404
REMARK                            x       y       z     vdW  Elec       q    Type
REMARK                         _______ _______ _______ _____ _____    ______ ____
ROOT
ATOM      1  CA  GLU A   1       5.504  15.186  13.740  0.00  0.00    +0.134 C 
ENDROOT
BRANCH   1   2
ATOM      2  N   GLU A   1       4.568  16.103  14.391  0.00  0.00    -0.239 NA
ATOM      3  H   GLU A   1       4.844  16.553  15.287  0.00  0.00    +0.142 HD
ENDBRANCH   1   2
BRANCH   1   4
ATOM      4  C   GLU A   1       4.911  13.787  13.576  0.00  0.00    +0.224 C 
ATOM      5  O   GLU A   1       5.053  13.162  12.523  0.00  0.00    -0.287 OA
ENDBRANCH   1   4
BRANCH   1   6
ATOM      6  CB  GLU A   1       6.828  15.127  14.534  0.00  0.00    +0.037 C 
BRANCH   6   7
ATOM      7  CG  GLU A   1       7.637  16.417  14.369  0.00  0.00    +0.116 C 
BRANCH   7   8
ATOM      8  CD  GLU A   1       8.653  16.662  15.473  0.00  0.00    +0.365 C 
ATOM      9  OE2 GLU A   1       8.764  15.831  16.395  0.00  0.00    -0.246 OA
ATOM     10  OE1 GLU A   1       9.328  17.714  15.412  0.00  0.00    -0.246 OA
ENDBRANCH   7   8
ENDBRANCH   6   7
ENDBRANCH   1   6
TORSDOF 5
REMARK  Name = ../refined-set-2016/3ujd/3ujd_pocket.pdb
REMARK  160 active torsions:
REMARK  status: ('A' for Active; 'I' for Inactive)
REMARK    1  A    between atoms: _1  and  _3
REMARK    2  A    between atoms: _3  and  _4
REMARK    3  A    between atoms: _3  and  _6
REMARK    4  A    between atoms: _6  and  _7
REMARK    5  A    between atoms: _7  and  _8
REMARK    6  A    between atoms: _13  and  _15
REMARK    7  A    between atoms: _15  and  _16
REMARK    8  A    between atoms: _15  and  _18
REMARK    9  A    between atoms: _18  and  _19
REMARK   10  A    between atoms: _25  and  _27
REMARK   11  A    between atoms: _27  and  _28
REMARK   12  A    between atoms: _30  and  _32
REMARK   13  A    between atoms: _32  and  _33
REMARK   14  A    between atoms: _32  and  _35
REMARK   15  A    between atoms: _35  and  _36
REMARK   16  A    between atoms: _41  and  _42
REMARK   17  A    between atoms: _44  and  _46
REMARK   18  A    between atoms: _46  and  _47
REMARK   19  A    between atoms: _46  and  _49
REMARK   20  A    between atoms: _49  and  _50
REMARK   21  A    between atoms: _53  and  _55
REMARK   22  A    between atoms: _55  and  _56
REMARK   23  A    between atoms: _55  and  _58
REMARK   24  A    between atoms: _58  and  _59
REMARK   25  A    between atoms: _65  and  _67
REMARK   26  A    between atoms: _67  and  _68
REMARK   27  A    between atoms: _67  and  _70
REMARK   28  A    between atoms: _70  and  _71
REMARK   29  A    between atoms: _76  and  _77
REMARK   30  A    between atoms: _79  and  _81
REMARK   31  A    between atoms: _81  and  _82
REMARK   32  A    between atoms: _81  and  _84
REMARK   33  A    between atoms: _84  and  _85
REMARK   34  A    between atoms: _88  and  _90
REMARK   35  A    between atoms: _90  and  _91
REMARK   36  A    between atoms: _90  and  _93
REMARK   37  A    between atoms: _93  and  _94
REMARK   38  A    between atoms: _96  and  _98
REMARK   39  A    between atoms: _98  and  _99
REMARK   40  A    between atoms: _98  and  _101
REMARK   41  A    between atoms: _101  and  _102
REMARK   42  A    between atoms: _104  and  _106
REMARK   43  A    between atoms: _106  and  _107
REMARK   44  A    between atoms: _109  and  _111
REMARK   45  A    between atoms: _111  and  _112
REMARK   46  A    between atoms: _114  and  _116
REMARK   47  A    between atoms: _116  and  _117
REMARK   48  A    between atoms: _119  and  _121
REMARK   49  A    between atoms: _121  and  _122
REMARK   50  A    between atoms: _124  and  _126
REMARK   51  A    between atoms: _126  and  _127
REMARK   52  A    between atoms: _126  and  _129
REMARK   53  A    between atoms: _129  and  _130
REMARK   54  A    between atoms: _130  and  _131
REMARK   55  A    between atoms: _131  and  _132
REMARK   56  A    between atoms: _141  and  _143
REMARK   57  A    between atoms: _143  and  _144
REMARK   58  A    between atoms: _143  and  _146
REMARK   59  A    between atoms: _146  and  _147
REMARK   60  A    between atoms: _150  and  _152
REMARK   61  A    between atoms: _152  and  _153
REMARK   62  A    between atoms: _156  and  _158
REMARK   63  A    between atoms: _158  and  _159
REMARK   64  A    between atoms: _158  and  _161
REMARK   65  A    between atoms: _161  and  _162
REMARK   66  A    between atoms: _165  and  _167
REMARK   67  A    between atoms: _167  and  _168
REMARK   68  A    between atoms: _167  and  _170
REMARK   69  A    between atoms: _170  and  _171
REMARK   70  A    between atoms: _174  and  _176
REMARK   71  A    between atoms: _176  and  _177
REMARK   72  A    between atoms: _176  and  _179
REMARK   73  A    between atoms: _179  and  _180
REMARK   74  A    between atoms: _185  and  _187
REMARK   75  A    between atoms: _187  and  _188
REMARK   76  A    between atoms: _187  and  _190
REMARK   77  A    between atoms: _190  and  _191
REMARK   78  A    between atoms: _194  and  _196
REMARK   79  A    between atoms: _196  and  _197
REMARK   80  A    between atoms: _196  and  _199
REMARK   81  A    between atoms: _199  and  _200
REMARK   82  A    between atoms: _203  and  _205
REMARK   83  A    between atoms: _205  and  _206
REMARK   84  A    between atoms: _205  and  _208
REMARK   85  A    between atoms: _208  and  _209
REMARK   86  A    between atoms: _214  and  _215
REMARK   87  A    between atoms: _217  and  _219
REMARK   88  A    between atoms: _219  and  _220
REMARK   89  A    between atoms: _219  and  _222
REMARK   90  A    between atoms: _222  and  _223
REMARK   91  A    between atoms: _228  and  _229
REMARK   92  A    between atoms: _231  and  _233
REMARK   93  A    between atoms: _233  and  _234
REMARK   94  A    between atoms: _233  and  _236
REMARK   95  A    between atoms: _236  and  _237
REMARK   96  A    between atoms: _237  and  _238
REMARK   97  A    between atoms: _243  and  _245
REMARK   98  A    between atoms: _245  and  _246
REMARK   99  A    between atoms: _245  and  _248
REMARK  100  A    between atoms: _248  and  _249
REMARK  101  A    between atoms: _249  and  _250
REMARK  102  A    between atoms: _250  and  _251
REMARK  103  A    between atoms: _260  and  _262
REMARK  104  A    between atoms: _262  and  _263
REMARK  105  A    between atoms: _262  and  _265
REMARK  106  A    between atoms: _265  and  _266
REMARK  107  A    between atoms: _271  and  _272
REMARK  108  A    between atoms: _274  and  _276
REMARK  109  A    between atoms: _276  and  _277
REMARK  110  A    between atoms: _276  and  _279
REMARK  111  A    between atoms: _279  and  _280
REMARK  112  A    between atoms: _283  and  _285
REMARK  113  A    between atoms: _285  and  _286
REMARK  114  A    between atoms: _285  and  _288
REMARK  115  A    between atoms: _288  and  _289
REMARK  116  A    between atoms: _299  and  _301
REMARK  117  A    between atoms: _301  and  _302
REMARK  118  A    between atoms: _301  and  _304
REMARK  119  A    between atoms: _304  and  _305
REMARK  120  A    between atoms: _308  and  _310
REMARK  121  A    between atoms: _310  and  _311
REMARK  122  A    between atoms: _310  and  _313
REMARK  123  A    between atoms: _313  and  _314
REMARK  124  A    between atoms: _314  and  _315
REMARK  125  A    between atoms: _318  and  _320
REMARK  126  A    between atoms: _320  and  _321
REMARK  127  A    between atoms: _320  and  _323
REMARK  128  A    between atoms: _323  and  _324
REMARK  129  A    between atoms: _326  and  _328
REMARK  130  A    between atoms: _328  and  _329
REMARK  131  A    between atoms: _328  and  _331
REMARK  132  A    between atoms: _331  and  _332
REMARK  133  A    between atoms: _335  and  _337
REMARK  134  A    between atoms: _337  and  _338
REMARK  135  A    between atoms: _340  and  _342
REMARK  136  A    between atoms: _342  and  _343
REMARK  137  A    between atoms: _342  and  _345
REMARK  138  A    between atoms: _345  and  _346
REMARK  139  A    between atoms: _356  and  _358
REMARK  140  A    between atoms: _358  and  _359
REMARK  141  A    between atoms: _358  and  _361
REMARK  142  A    between atoms: _361  and  _362
REMARK  143  A    between atoms: _362  and  _363
REMARK  144  A    between atoms: _363  and  _364
REMARK  145  A    between atoms: _373  and  _375
REMARK  146  A    between atoms: _375  and  _376
REMARK  147  A    between atoms: _375  and  _378
REMARK  148  A    between atoms: _378  and  _379
REMARK  149  A    between atoms: _379  and  _380
REMARK  150  A    between atoms: _380  and  _381
REMARK  151  A    between atoms: _381  and  _382
REMARK  152  A    between atoms: _386  and  _388
REMARK  153  A    between atoms: _388  and  _389
REMARK  154  A    between atoms: _388  and  _391
REMARK  155  A    between atoms: _391  and  _392
REMARK  156  A    between atoms: _392  and  _393
REMARK  157  A    between atoms: _398  and  _400
REMARK  158  A    between atoms: _400  and  _401
REMARK  159  A    between atoms: _400  and  _403
REMARK  160  A    between atoms: _403  and  _404
REMARK                            x       y       z     vdW  Elec       q    Type
REMARK                         _______ _______ _______ _____ _____    ______ ____
ROOT
ATOM      1  C   SER A   1      10.564   3.492  15.514  0.00  0.00    +0.241 C 
ATOM      2  O   SER A   1      10.481   3.949  16.657  0.00  0.00    -0.274 OA
ATOM      3  N   LEU A   2      10.445   4.251  14.431  0.00  0.00    -0.298 N 
ATOM      4  H   LEU A   2      10.514   3.813  13.490  0.00  0.00    +0.150 HD
ENDROOT
BRANCH   1   5
ATOM      5  CA  SER A   1      10.805   2.006  15.274  0.00  0.00    +0.174 C 
BRANCH   5   6
ATOM      6  N   SER A   1       9.916   1.475  14.245  0.00  0.00    -0.236 NA
ATOM      7  H   SER A   1      10.325   1.051  13.388  0.00  0.00    +0.142 HD
ENDBRANCH   5   6
BRANCH   5   8
ATOM      8  CB  SER A   1      12.266   1.766  14.895  0.00  0.00    +0.163 C 
BRANCH   8   9
ATOM      9  OG  SER A   1      12.572   0.386  14.959  0.00  0.00    -0.380 OA
ATOM     10  H   SER A   1      12.419   0.058  15.880  0.00  0.00    +0.211 HD
ENDBRANCH   8   9
ENDBRANCH   5   8
ENDBRANCH   1   5
BRANCH   3  11
ATOM     11  CA  LEU A   2      10.220   5.685  14.537  0.00  0.00    +0.137 C 
BRANCH  11  12
ATOM     12  C   LEU A   2       8.846   5.993  15.141  0.00  0.00    +0.227 C 
ATOM     13  O   LEU A   2       8.717   6.827  16.041  0.00  0.00    -0.286 OA
ENDBRANCH  11  12
BRANCH  11  14
ATOM     14  CB  LEU A   2      10.364   6.317  13.151  0.00  0.00    +0.028 C 
BRANCH  14  15
ATOM     15  CG  LEU A   2      10.503   7.834  13.103  0.00  0.00    +0.002 C 
ATOM     16  CD2 LEU A   2      11.846   8.219  13.684  0.00  0.00    +0.000 C 
ATOM     17  CD1 LEU A   2      10.376   8.311  11.656  0.00  0.00    +0.000 C 
ENDBRANCH  14  15
ENDBRANCH  11  14
ENDBRANCH   3  11
TORSDOF 8
REMARK  Name = ../refined-set-2016/3ujd/3ujd_pocket.pdb
REMARK  160 active torsions:
REMARK  status: ('A' for Active; 'I' for Inactive)
REMARK    1  A    between atoms: _1  and  _3
REMARK    2  A    between atoms: _3  and  _4
REMARK    3  A    between atoms: _3  and  _6
REMARK    4  A    between atoms: _6  and  _7
REMARK    5  A    between atoms: _7  and  _8
REMARK    6  A    between atoms: _13  and  _15
REMARK    7  A    between atoms: _15  and  _16
REMARK    8  A    between atoms: _15  and  _18
REMARK    9  A    between atoms: _18  and  _19
REMARK   10  A    between atoms: _25  and  _27
REMARK   11  A    between atoms: _27  and  _28
REMARK   12  A    between atoms: _30  and  _32
REMARK   13  A    between atoms: _32  and  _33
REMARK   14  A    between atoms: _32  and  _35
REMARK   15  A    between atoms: _35  and  _36
REMARK   16  A    between atoms: _41  and  _42
REMARK   17  A    between atoms: _44  and  _46
REMARK   18  A    between atoms: _46  and  _47
REMARK   19  A    between atoms: _46  and  _49
REMARK   20  A    between atoms: _49  and  _50
REMARK   21  A    between atoms: _53  and  _55
REMARK   22  A    between atoms: _55  and  _56
REMARK   23  A    between atoms: _55  and  _58
REMARK   24  A    between atoms: _58  and  _59
REMARK   25  A    between atoms: _65  and  _67
REMARK   26  A    between atoms: _67  and  _68
REMARK   27  A    between atoms: _67  and  _70
REMARK   28  A    between atoms: _70  and  _71
REMARK   29  A    between atoms: _76  and  _77
REMARK   30  A    between atoms: _79  and  _81
REMARK   31  A    between atoms: _81  and  _82
REMARK   32  A    between atoms: _81  and  _84
REMARK   33  A    between atoms: _84  and  _85
REMARK   34  A    between atoms: _88  and  _90
REMARK   35  A    between atoms: _90  and  _91
REMARK   36  A    between atoms: _90  and  _93
REMARK   37  A    between atoms: _93  and  _94
REMARK   38  A    between atoms: _96  and  _98
REMARK   39  A    between atoms: _98  and  _99
REMARK   40  A    between atoms: _98  and  _101
REMARK   41  A    between atoms: _101  and  _102
REMARK   42  A    between atoms: _104  and  _106
REMARK   43  A    between atoms: _106  and  _107
REMARK   44  A    between atoms: _109  and  _111
REMARK   45  A    between atoms: _111  and  _112
REMARK   46  A    between atoms: _114  and  _116
REMARK   47  A    between atoms: _116  and  _117
REMARK   48  A    between atoms: _119  and  _121
REMARK   49  A    between atoms: _121  and  _122
REMARK   50  A    between atoms: _124  and  _126
REMARK   51  A    between atoms: _126  and  _127
REMARK   52  A    between atoms: _126  and  _129
REMARK   53  A    between atoms: _129  and  _130
REMARK   54  A    between atoms: _130  and  _131
REMARK   55  A    between atoms: _131  and  _132
REMARK   56  A    between atoms: _141  and  _143
REMARK   57  A    between atoms: _143  and  _144
REMARK   58  A    between atoms: _143  and  _146
REMARK   59  A    between atoms: _146  and  _147
REMARK   60  A    between atoms: _150  and  _152
REMARK   61  A    between atoms: _152  and  _153
REMARK   62  A    between atoms: _156  and  _158
REMARK   63  A    between atoms: _158  and  _159
REMARK   64  A    between atoms: _158  and  _161
REMARK   65  A    between atoms: _161  and  _162
REMARK   66  A    between atoms: _165  and  _167
REMARK   67  A    between atoms: _167  and  _168
REMARK   68  A    between atoms: _167  and  _170
REMARK   69  A    between atoms: _170  and  _171
REMARK   70  A    between atoms: _174  and  _176
REMARK   71  A    between atoms: _176  and  _177
REMARK   72  A    between atoms: _176  and  _179
REMARK   73  A    between atoms: _179  and  _180
REMARK   74  A    between atoms: _185  and  _187
REMARK   75  A    between atoms: _187  and  _188
REMARK   76  A    between atoms: _187  and  _190
REMARK   77  A    between atoms: _190  and  _191
REMARK   78  A    between atoms: _194  and  _196
REMARK   79  A    between atoms: _196  and  _197
REMARK   80  A    between atoms: _196  and  _199
REMARK   81  A    between atoms: _199  and  _200
REMARK   82  A    between atoms: _203  and  _205
REMARK   83  A    between atoms: _205  and  _206
REMARK   84  A    between atoms: _205  and  _208
REMARK   85  A    between atoms: _208  and  _209
REMARK   86  A    between atoms: _214  and  _215
REMARK   87  A    between atoms: _217  and  _219
REMARK   88  A    between atoms: _219  and  _220
REMARK   89  A    between atoms: _219  and  _222
REMARK   90  A    between atoms: _222  and  _223
REMARK   91  A    between atoms: _228  and  _229
REMARK   92  A    between atoms: _231  and  _233
REMARK   93  A    between atoms: _233  and  _234
REMARK   94  A    between atoms: _233  and  _236
REMARK   95  A    between atoms: _236  and  _237
REMARK   96  A    between atoms: _237  and  _238
REMARK   97  A    between atoms: _243  and  _245
REMARK   98  A    between atoms: _245  and  _246
REMARK   99  A    between atoms: _245  and  _248
REMARK  100  A    between atoms: _248  and  _249
REMARK  101  A    between atoms: _249  and  _250
REMARK  102  A    between atoms: _250  and  _251
REMARK  103  A    between atoms: _260  and  _262
REMARK  104  A    between atoms: _262  and  _263
REMARK  105  A    between atoms: _262  and  _265
REMARK  106  A    between atoms: _265  and  _266
REMARK  107  A    between atoms: _271  and  _272
REMARK  108  A    between atoms: _274  and  _276
REMARK  109  A    between atoms: _276  and  _277
REMARK  110  A    between atoms: _276  and  _279
REMARK  111  A    between atoms: _279  and  _280
REMARK  112  A    between atoms: _283  and  _285
REMARK  113  A    between atoms: _285  and  _286
REMARK  114  A    between atoms: _285  and  _288
REMARK  115  A    between atoms: _288  and  _289
REMARK  116  A    between atoms: _299  and  _301
REMARK  117  A    between atoms: _301  and  _302
REMARK  118  A    between atoms: _301  and  _304
REMARK  119  A    between atoms: _304  and  _305
REMARK  120  A    between atoms: _308  and  _310
REMARK  121  A    between atoms: _310  and  _311
REMARK  122  A    between atoms: _310  and  _313
REMARK  123  A    between atoms: _313  and  _314
REMARK  124  A    between atoms: _314  and  _315
REMARK  125  A    between atoms: _318  and  _320
REMARK  126  A    between atoms: _320  and  _321
REMARK  127  A    between atoms: _320  and  _323
REMARK  128  A    between atoms: _323  and  _324
REMARK  129  A    between atoms: _326  and  _328
REMARK  130  A    between atoms: _328  and  _329
REMARK  131  A    between atoms: _328  and  _331
REMARK  132  A    between atoms: _331  and  _332
REMARK  133  A    between atoms: _335  and  _337
REMARK  134  A    between atoms: _337  and  _338
REMARK  135  A    between atoms: _340  and  _342
REMARK  136  A    between atoms: _342  and  _343
REMARK  137  A    between atoms: _342  and  _345
REMARK  138  A    between atoms: _345  and  _346
REMARK  139  A    between atoms: _356  and  _358
REMARK  140  A    between atoms: _358  and  _359
REMARK  141  A    between atoms: _358  and  _361
REMARK  142  A    between atoms: _361  and  _362
REMARK  143  A    between atoms: _362  and  _363
REMARK  144  A    between atoms: _363  and  _364
REMARK  145  A    between atoms: _373  and  _375
REMARK  146  A    between atoms: _375  and  _376
REMARK  147  A    between atoms: _375  and  _378
REMARK  148  A    between atoms: _378  and  _379
REMARK  149  A    between atoms: _379  and  _380
REMARK  150  A    between atoms: _380  and  _381
REMARK  151  A    between atoms: _381  and  _382
REMARK  152  A    between atoms: _386  and  _388
REMARK  153  A    between atoms: _388  and  _389
REMARK  154  A    between atoms: _388  and  _391
REMARK  155  A    between atoms: _391  and  _392
REMARK  156  A    between atoms: _392  and  _393
REMARK  157  A    between atoms: _398  and  _400
REMARK  158  A    between atoms: _400  and  _401
REMARK  159  A    between atoms: _400  and  _403
REMARK  160  A    between atoms: _403  and  _404
REMARK                            x       y       z     vdW  Elec       q    Type
REMARK                         _______ _______ _______ _____ _____    ______ ____
ROOT
ATOM      1  CB  TRP A   2       7.068   9.662  17.629  0.00  0.00    +0.056 C 
ENDROOT
BRANCH   1   2
ATOM      2  CG  TRP A   2       7.857  10.860  17.189  0.00  0.00    -0.002 A 
ATOM      3  CD1 TRP A   2       7.397  12.144  17.056  0.00  0.00    +0.068 A 
ATOM      4  NE1 TRP A   2       8.416  12.971  16.642  0.00  0.00    -0.352 N 
ATOM      5  CE2 TRP A   2       9.565  12.232  16.507  0.00  0.00    +0.056 A 
ATOM      6  CZ2 TRP A   2      10.848  12.624  16.108  0.00  0.00    +0.017 A 
ATOM      7  CH2 TRP A   2      11.822  11.656  16.066  0.00  0.00    +0.001 A 
ATOM      8  CZ3 TRP A   2      11.543  10.318  16.404  0.00  0.00    +0.000 A 
ATOM      9  CE3 TRP A   2      10.264   9.929  16.788  0.00  0.00    +0.001 A 
ATOM     10  HE1 TRP A   2       8.330  13.991  16.461  0.00  0.00    +0.166 HD
ATOM     11  CD2 TRP A   2       9.254  10.897  16.851  0.00  0.00    +0.013 A 
ENDBRANCH   1   2
BRANCH   1  12
ATOM     12  CA  TRP A   2       7.522   9.076  18.979  0.00  0.00    +0.141 C 
BRANCH  12  15
ATOM     13  C   GLY A   1       9.017   7.363  19.808  0.00  0.00    +0.240 C 
ATOM     14  O   GLY A   1       9.095   7.936  20.895  0.00  0.00    -0.274 OA
ATOM     15  N   TRP A   2       8.299   7.853  18.803  0.00  0.00    -0.298 N 
ATOM     16  H   TRP A   2       8.291   7.362  17.886  0.00  0.00    +0.150 HD
BRANCH  13  17
ATOM     17  CA  GLY A   1       9.740   6.054  19.543  0.00  0.00    +0.169 C 
BRANCH  17  18
ATOM     18  N   GLY A   1       8.904   5.134  18.791  0.00  0.00    -0.236 NA
ATOM     19  H   GLY A   1       9.183   4.852  17.830  0.00  0.00    +0.142 HD
ENDBRANCH  17  18
ENDBRANCH  13  17
ENDBRANCH  12  15
BRANCH  12  20
ATOM     20  C   TRP A   2       6.339   8.845  19.914  0.00  0.00    +0.227 C 
ATOM     21  O   TRP A   2       6.019   9.713  20.730  0.00  0.00    -0.286 OA
ENDBRANCH  12  20
ENDBRANCH   1  12
TORSDOF 6
REMARK  Name = ../refined-set-2016/3ujd/3ujd_pocket.pdb
REMARK  160 active torsions:
REMARK  status: ('A' for Active; 'I' for Inactive)
REMARK    1  A    between atoms: _1  and  _3
REMARK    2  A    between atoms: _3  and  _4
REMARK    3  A    between atoms: _3  and  _6
REMARK    4  A    between atoms: _6  and  _7
REMARK    5  A    between atoms: _7  and  _8
REMARK    6  A    between atoms: _13  and  _15
REMARK    7  A    between atoms: _15  and  _16
REMARK    8  A    between atoms: _15  and  _18
REMARK    9  A    between atoms: _18  and  _19
REMARK   10  A    between atoms: _25  and  _27
REMARK   11  A    between atoms: _27  and  _28
REMARK   12  A    between atoms: _30  and  _32
REMARK   13  A    between atoms: _32  and  _33
REMARK   14  A    between atoms: _32  and  _35
REMARK   15  A    between atoms: _35  and  _36
REMARK   16  A    between atoms: _41  and  _42
REMARK   17  A    between atoms: _44  and  _46
REMARK   18  A    between atoms: _46  and  _47
REMARK   19  A    between atoms: _46  and  _49
REMARK   20  A    between atoms: _49  and  _50
REMARK   21  A    between atoms: _53  and  _55
REMARK   22  A    between atoms: _55  and  _56
REMARK   23  A    between atoms: _55  and  _58
REMARK   24  A    between atoms: _58  and  _59
REMARK   25  A    between atoms: _65  and  _67
REMARK   26  A    between atoms: _67  and  _68
REMARK   27  A    between atoms: _67  and  _70
REMARK   28  A    between atoms: _70  and  _71
REMARK   29  A    between atoms: _76  and  _77
REMARK   30  A    between atoms: _79  and  _81
REMARK   31  A    between atoms: _81  and  _82
REMARK   32  A    between atoms: _81  and  _84
REMARK   33  A    between atoms: _84  and  _85
REMARK   34  A    between atoms: _88  and  _90
REMARK   35  A    between atoms: _90  and  _91
REMARK   36  A    between atoms: _90  and  _93
REMARK   37  A    between atoms: _93  and  _94
REMARK   38  A    between atoms: _96  and  _98
REMARK   39  A    between atoms: _98  and  _99
REMARK   40  A    between atoms: _98  and  _101
REMARK   41  A    between atoms: _101  and  _102
REMARK   42  A    between atoms: _104  and  _106
REMARK   43  A    between atoms: _106  and  _107
REMARK   44  A    between atoms: _109  and  _111
REMARK   45  A    between atoms: _111  and  _112
REMARK   46  A    between atoms: _114  and  _116
REMARK   47  A    between atoms: _116  and  _117
REMARK   48  A    between atoms: _119  and  _121
REMARK   49  A    between atoms: _121  and  _122
REMARK   50  A    between atoms: _124  and  _126
REMARK   51  A    between atoms: _126  and  _127
REMARK   52  A    between atoms: _126  and  _129
REMARK   53  A    between atoms: _129  and  _130
REMARK   54  A    between atoms: _130  and  _131
REMARK   55  A    between atoms: _131  and  _132
REMARK   56  A    between atoms: _141  and  _143
REMARK   57  A    between atoms: _143  and  _144
REMARK   58  A    between atoms: _143  and  _146
REMARK   59  A    between atoms: _146  and  _147
REMARK   60  A    between atoms: _150  and  _152
REMARK   61  A    between atoms: _152  and  _153
REMARK   62  A    between atoms: _156  and  _158
REMARK   63  A    between atoms: _158  and  _159
REMARK   64  A    between atoms: _158  and  _161
REMARK   65  A    between atoms: _161  and  _162
REMARK   66  A    between atoms: _165  and  _167
REMARK   67  A    between atoms: _167  and  _168
REMARK   68  A    between atoms: _167  and  _170
REMARK   69  A    between atoms: _170  and  _171
REMARK   70  A    between atoms: _174  and  _176
REMARK   71  A    between atoms: _176  and  _177
REMARK   72  A    between atoms: _176  and  _179
REMARK   73  A    between atoms: _179  and  _180
REMARK   74  A    between atoms: _185  and  _187
REMARK   75  A    between atoms: _187  and  _188
REMARK   76  A    between atoms: _187  and  _190
REMARK   77  A    between atoms: _190  and  _191
REMARK   78  A    between atoms: _194  and  _196
REMARK   79  A    between atoms: _196  and  _197
REMARK   80  A    between atoms: _196  and  _199
REMARK   81  A    between atoms: _199  and  _200
REMARK   82  A    between atoms: _203  and  _205
REMARK   83  A    between atoms: _205  and  _206
REMARK   84  A    between atoms: _205  and  _208
REMARK   85  A    between atoms: _208  and  _209
REMARK   86  A    between atoms: _214  and  _215
REMARK   87  A    between atoms: _217  and  _219
REMARK   88  A    between atoms: _219  and  _220
REMARK   89  A    between atoms: _219  and  _222
REMARK   90  A    between atoms: _222  and  _223
REMARK   91  A    between atoms: _228  and  _229
REMARK   92  A    between atoms: _231  and  _233
REMARK   93  A    between atoms: _233  and  _234
REMARK   94  A    between atoms: _233  and  _236
REMARK   95  A    between atoms: _236  and  _237
REMARK   96  A    between atoms: _237  and  _238
REMARK   97  A    between atoms: _243  and  _245
REMARK   98  A    between atoms: _245  and  _246
REMARK   99  A    between atoms: _245  and  _248
REMARK  100  A    between atoms: _248  and  _249
REMARK  101  A    between atoms: _249  and  _250
REMARK  102  A    between atoms: _250  and  _251
REMARK  103  A    between atoms: _260  and  _262
REMARK  104  A    between atoms: _262  and  _263
REMARK  105  A    between atoms: _262  and  _265
REMARK  106  A    between atoms: _265  and  _266
REMARK  107  A    between atoms: _271  and  _272
REMARK  108  A    between atoms: _274  and  _276
REMARK  109  A    between atoms: _276  and  _277
REMARK  110  A    between atoms: _276  and  _279
REMARK  111  A    between atoms: _279  and  _280
REMARK  112  A    between atoms: _283  and  _285
REMARK  113  A    between atoms: _285  and  _286
REMARK  114  A    between atoms: _285  and  _288
REMARK  115  A    between atoms: _288  and  _289
REMARK  116  A    between atoms: _299  and  _301
REMARK  117  A    between atoms: _301  and  _302
REMARK  118  A    between atoms: _301  and  _304
REMARK  119  A    between atoms: _304  and  _305
REMARK  120  A    between atoms: _308  and  _310
REMARK  121  A    between atoms: _310  and  _311
REMARK  122  A    between atoms: _310  and  _313
REMARK  123  A    between atoms: _313  and  _314
REMARK  124  A    between atoms: _314  and  _315
REMARK  125  A    between atoms: _318  and  _320
REMARK  126  A    between atoms: _320  and  _321
REMARK  127  A    between atoms: _320  and  _323
REMARK  128  A    between atoms: _323  and  _324
REMARK  129  A    between atoms: _326  and  _328
REMARK  130  A    between atoms: _328  and  _329
REMARK  131  A    between atoms: _328  and  _331
REMARK  132  A    between atoms: _331  and  _332
REMARK  133  A    between atoms: _335  and  _337
REMARK  134  A    between atoms: _337  and  _338
REMARK  135  A    between atoms: _340  and  _342
REMARK  136  A    between atoms: _342  and  _343
REMARK  137  A    between atoms: _342  and  _345
REMARK  138  A    between atoms: _345  and  _346
REMARK  139  A    between atoms: _356  and  _358
REMARK  140  A    between atoms: _358  and  _359
REMARK  141  A    between atoms: _358  and  _361
REMARK  142  A    between atoms: _361  and  _362
REMARK  143  A    between atoms: _362  and  _363
REMARK  144  A    between atoms: _363  and  _364
REMARK  145  A    between atoms: _373  and  _375
REMARK  146  A    between atoms: _375  and  _376
REMARK  147  A    between atoms: _375  and  _378
REMARK  148  A    between atoms: _378  and  _379
REMARK  149  A    between atoms: _379  and  _380
REMARK  150  A    between atoms: _380  and  _381
REMARK  151  A    between atoms: _381  and  _382
REMARK  152  A    between atoms: _386  and  _388
REMARK  153  A    between atoms: _388  and  _389
REMARK  154  A    between atoms: _388  and  _391
REMARK  155  A    between atoms: _391  and  _392
REMARK  156  A    between atoms: _392  and  _393
REMARK  157  A    between atoms: _398  and  _400
REMARK  158  A    between atoms: _400  and  _401
REMARK  159  A    between atoms: _400  and  _403
REMARK  160  A    between atoms: _403  and  _404
REMARK                            x       y       z     vdW  Elec       q    Type
REMARK                         _______ _______ _______ _____ _____    ______ ____
ROOT
ATOM      1  CA  ARG A   1       6.747   6.887  23.828  0.00  0.00    +0.145 C 
ENDROOT
BRANCH   1   2
ATOM      2  C   ARG A   1       7.053   8.316  24.277  0.00  0.00    +0.238 C 
ATOM      3  O   ARG A   1       6.719   8.700  25.394  0.00  0.00    -0.274 OA
ATOM      4  N   LYS A   2       7.683   9.110  23.416  0.00  0.00    -0.298 N 
ATOM      5  H   LYS A   2       7.956   8.753  22.478  0.00  0.00    +0.150 HD
BRANCH   4   6
ATOM      6  CA  LYS A   2       7.989  10.490  23.797  0.00  0.00    +0.137 C 
BRANCH   6   7
ATOM      7  C   LYS A   2       6.717  11.297  24.057  0.00  0.00    +0.227 C 
ATOM      8  O   LYS A   2       6.683  12.145  24.939  0.00  0.00    -0.286 OA
ENDBRANCH   6   7
BRANCH   6   9
ATOM      9  CB  LYS A   2       8.853  11.175  22.739  0.00  0.00    +0.028 C 
BRANCH   9  10
ATOM     10  CG  LYS A   2      10.303  10.672  22.700  0.00  0.00    -0.000 C 
BRANCH  10  11
ATOM     11  CD  LYS A   2      11.140  11.469  21.691  0.00  0.00    -0.024 C 
BRANCH  11  12
ATOM     12  CE  LYS A   2      10.779  11.114  20.258  0.00  0.00    -0.086 C 
BRANCH  12  13
ATOM     13  NZ  LYS A   2      11.697  11.843  19.342  0.00  0.00    +0.380 N 
ATOM     14  HZ1 LYS A   2      12.678  11.561  19.540  0.00  0.00    -0.089 HD
ATOM     15  HZ2 LYS A   2      11.592  12.867  19.491  0.00  0.00    -0.089 HD
ATOM     16  HZ3 LYS A   2      11.460  11.608  18.357  0.00  0.00    -0.089 HD
ENDBRANCH  12  13
ENDBRANCH  11  12
ENDBRANCH  10  11
ENDBRANCH   9  10
ENDBRANCH   6   9
ENDBRANCH   4   6
ENDBRANCH   1   2
BRANCH   1  17
ATOM     17  N   ARG A   1       6.236   6.845  22.454  0.00  0.00    -0.238 NA
ATOM     18  H   ARG A   1       6.784   6.372  21.707  0.00  0.00    +0.142 HD
ENDBRANCH   1  17
BRANCH   1  19
ATOM     19  CB  ARG A   1       7.993   5.999  24.022  0.00  0.00    +0.030 C 
BRANCH  19  20
ATOM     20  CG  ARG A   1       8.349   5.829  25.517  0.00  0.00    +0.045 C 
BRANCH  20  21
ATOM     21  CD  ARG A   1       9.822   5.485  25.791  0.00  0.00    +0.174 C 
BRANCH  21  22
ATOM     22  NE  ARG A   1      10.716   6.353  25.037  0.00  0.00    -0.265 N 
ATOM     23  CZ  ARG A   1      11.002   7.616  25.344  0.00  0.00    +0.342 C 
ATOM     24  NH2 ARG A   1      10.486   8.211  26.422  0.00  0.00    -0.292 N 
ATOM     25 HH21 ARG A   1       9.842   7.686  27.048  0.00  0.00    +0.255 HD
ATOM     26 HH22 ARG A   1      10.728   9.200  26.636  0.00  0.00    +0.255 HD
ATOM     27  NH1 ARG A   1      11.799   8.303  24.544  0.00  0.00    -0.292 N 
ATOM     28 HH11 ARG A   1      12.034   9.291  24.767  0.00  0.00    +0.255 HD
ATOM     29 HH12 ARG A   1      12.191   7.855  23.691  0.00  0.00    +0.255 HD
ATOM     30  HE  ARG A   1      11.168   5.953  24.190  0.00  0.00    +0.259 HD
ENDBRANCH  21  22
ENDBRANCH  20  21
ENDBRANCH  19  20
ENDBRANCH   1  19
TORSDOF 13
REMARK  Name = ../refined-set-2016/3ujd/3ujd_pocket.pdb
REMARK  160 active torsions:
REMARK  status: ('A' for Active; 'I' for Inactive)
REMARK    1  A    between atoms: _1  and  _3
REMARK    2  A    between atoms: _3  and  _4
REMARK    3  A    between atoms: _3  and  _6
REMARK    4  A    between atoms: _6  and  _7
REMARK    5  A    between atoms: _7  and  _8
REMARK    6  A    between atoms: _13  and  _15
REMARK    7  A    between atoms: _15  and  _16
REMARK    8  A    between atoms: _15  and  _18
REMARK    9  A    between atoms: _18  and  _19
REMARK   10  A    between atoms: _25  and  _27
REMARK   11  A    between atoms: _27  and  _28
REMARK   12  A    between atoms: _30  and  _32
REMARK   13  A    between atoms: _32  and  _33
REMARK   14  A    between atoms: _32  and  _35
REMARK   15  A    between atoms: _35  and  _36
REMARK   16  A    between atoms: _41  and  _42
REMARK   17  A    between atoms: _44  and  _46
REMARK   18  A    between atoms: _46  and  _47
REMARK   19  A    between atoms: _46  and  _49
REMARK   20  A    between atoms: _49  and  _50
REMARK   21  A    between atoms: _53  and  _55
REMARK   22  A    between atoms: _55  and  _56
REMARK   23  A    between atoms: _55  and  _58
REMARK   24  A    between atoms: _58  and  _59
REMARK   25  A    between atoms: _65  and  _67
REMARK   26  A    between atoms: _67  and  _68
REMARK   27  A    between atoms: _67  and  _70
REMARK   28  A    between atoms: _70  and  _71
REMARK   29  A    between atoms: _76  and  _77
REMARK   30  A    between atoms: _79  and  _81
REMARK   31  A    between atoms: _81  and  _82
REMARK   32  A    between atoms: _81  and  _84
REMARK   33  A    between atoms: _84  and  _85
REMARK   34  A    between atoms: _88  and  _90
REMARK   35  A    between atoms: _90  and  _91
REMARK   36  A    between atoms: _90  and  _93
REMARK   37  A    between atoms: _93  and  _94
REMARK   38  A    between atoms: _96  and  _98
REMARK   39  A    between atoms: _98  and  _99
REMARK   40  A    between atoms: _98  and  _101
REMARK   41  A    between atoms: _101  and  _102
REMARK   42  A    between atoms: _104  and  _106
REMARK   43  A    between atoms: _106  and  _107
REMARK   44  A    between atoms: _109  and  _111
REMARK   45  A    between atoms: _111  and  _112
REMARK   46  A    between atoms: _114  and  _116
REMARK   47  A    between atoms: _116  and  _117
REMARK   48  A    between atoms: _119  and  _121
REMARK   49  A    between atoms: _121  and  _122
REMARK   50  A    between atoms: _124  and  _126
REMARK   51  A    between atoms: _126  and  _127
REMARK   52  A    between atoms: _126  and  _129
REMARK   53  A    between atoms: _129  and  _130
REMARK   54  A    between atoms: _130  and  _131
REMARK   55  A    between atoms: _131  and  _132
REMARK   56  A    between atoms: _141  and  _143
REMARK   57  A    between atoms: _143  and  _144
REMARK   58  A    between atoms: _143  and  _146
REMARK   59  A    between atoms: _146  and  _147
REMARK   60  A    between atoms: _150  and  _152
REMARK   61  A    between atoms: _152  and  _153
REMARK   62  A    between atoms: _156  and  _158
REMARK   63  A    between atoms: _158  and  _159
REMARK   64  A    between atoms: _158  and  _161
REMARK   65  A    between atoms: _161  and  _162
REMARK   66  A    between atoms: _165  and  _167
REMARK   67  A    between atoms: _167  and  _168
REMARK   68  A    between atoms: _167  and  _170
REMARK   69  A    between atoms: _170  and  _171
REMARK   70  A    between atoms: _174  and  _176
REMARK   71  A    between atoms: _176  and  _177
REMARK   72  A    between atoms: _176  and  _179
REMARK   73  A    between atoms: _179  and  _180
REMARK   74  A    between atoms: _185  and  _187
REMARK   75  A    between atoms: _187  and  _188
REMARK   76  A    between atoms: _187  and  _190
REMARK   77  A    between atoms: _190  and  _191
REMARK   78  A    between atoms: _194  and  _196
REMARK   79  A    between atoms: _196  and  _197
REMARK   80  A    between atoms: _196  and  _199
REMARK   81  A    between atoms: _199  and  _200
REMARK   82  A    between atoms: _203  and  _205
REMARK   83  A    between atoms: _205  and  _206
REMARK   84  A    between atoms: _205  and  _208
REMARK   85  A    between atoms: _208  and  _209
REMARK   86  A    between atoms: _214  and  _215
REMARK   87  A    between atoms: _217  and  _219
REMARK   88  A    between atoms: _219  and  _220
REMARK   89  A    between atoms: _219  and  _222
REMARK   90  A    between atoms: _222  and  _223
REMARK   91  A    between atoms: _228  and  _229
REMARK   92  A    between atoms: _231  and  _233
REMARK   93  A    between atoms: _233  and  _234
REMARK   94  A    between atoms: _233  and  _236
REMARK   95  A    between atoms: _236  and  _237
REMARK   96  A    between atoms: _237  and  _238
REMARK   97  A    between atoms: _243  and  _245
REMARK   98  A    between atoms: _245  and  _246
REMARK   99  A    between atoms: _245  and  _248
REMARK  100  A    between atoms: _248  and  _249
REMARK  101  A    between atoms: _249  and  _250
REMARK  102  A    between atoms: _250  and  _251
REMARK  103  A    between atoms: _260  and  _262
REMARK  104  A    between atoms: _262  and  _263
REMARK  105  A    between atoms: _262  and  _265
REMARK  106  A    between atoms: _265  and  _266
REMARK  107  A    between atoms: _271  and  _272
REMARK  108  A    between atoms: _274  and  _276
REMARK  109  A    between atoms: _276  and  _277
REMARK  110  A    between atoms: _276  and  _279
REMARK  111  A    between atoms: _279  and  _280
REMARK  112  A    between atoms: _283  and  _285
REMARK  113  A    between atoms: _285  and  _286
REMARK  114  A    between atoms: _285  and  _288
REMARK  115  A    between atoms: _288  and  _289
REMARK  116  A    between atoms: _299  and  _301
REMARK  117  A    between atoms: _301  and  _302
REMARK  118  A    between atoms: _301  and  _304
REMARK  119  A    between atoms: _304  and  _305
REMARK  120  A    between atoms: _308  and  _310
REMARK  121  A    between atoms: _310  and  _311
REMARK  122  A    between atoms: _310  and  _313
REMARK  123  A    between atoms: _313  and  _314
REMARK  124  A    between atoms: _314  and  _315
REMARK  125  A    between atoms: _318  and  _320
REMARK  126  A    between atoms: _320  and  _321
REMARK  127  A    between atoms: _320  and  _323
REMARK  128  A    between atoms: _323  and  _324
REMARK  129  A    between atoms: _326  and  _328
REMARK  130  A    between atoms: _328  and  _329
REMARK  131  A    between atoms: _328  and  _331
REMARK  132  A    between atoms: _331  and  _332
REMARK  133  A    between atoms: _335  and  _337
REMARK  134  A    between atoms: _337  and  _338
REMARK  135  A    between atoms: _340  and  _342
REMARK  136  A    between atoms: _342  and  _343
REMARK  137  A    between atoms: _342  and  _345
REMARK  138  A    between atoms: _345  and  _346
REMARK  139  A    between atoms: _356  and  _358
REMARK  140  A    between atoms: _358  and  _359
REMARK  141  A    between atoms: _358  and  _361
REMARK  142  A    between atoms: _361  and  _362
REMARK  143  A    between atoms: _362  and  _363
REMARK  144  A    between atoms: _363  and  _364
REMARK  145  A    between atoms: _373  and  _375
REMARK  146  A    between atoms: _375  and  _376
REMARK  147  A    between atoms: _375  and  _378
REMARK  148  A    between atoms: _378  and  _379
REMARK  149  A    between atoms: _379  and  _380
REMARK  150  A    between atoms: _380  and  _381
REMARK  151  A    between atoms: _381  and  _382
REMARK  152  A    between atoms: _386  and  _388
REMARK  153  A    between atoms: _388  and  _389
REMARK  154  A    between atoms: _388  and  _391
REMARK  155  A    between atoms: _391  and  _392
REMARK  156  A    between atoms: _392  and  _393
REMARK  157  A    between atoms: _398  and  _400
REMARK  158  A    between atoms: _400  and  _401
REMARK  159  A    between atoms: _400  and  _403
REMARK  160  A    between atoms: _403  and  _404
REMARK                            x       y       z     vdW  Elec       q    Type
REMARK                         _______ _______ _______ _____ _____    ______ ____
ROOT
ATOM      1  CB  GLN A   1      10.888  12.224  28.409  0.00  0.00    +0.035 C 
ENDROOT
BRANCH   1   2
ATOM      2  CA  GLN A   1      10.771  12.985  29.736  0.00  0.00    +0.134 C 
BRANCH   2   3
ATOM      3  N   GLN A   1       9.795  12.376  30.623  0.00  0.00    -0.239 NA
ATOM      4  H   GLN A   1       8.875  12.076  30.242  0.00  0.00    +0.142 HD
ENDBRANCH   2   3
BRANCH   2   5
ATOM      5  C   GLN A   1      10.344  14.433  29.518  0.00  0.00    +0.224 C 
ATOM      6  O   GLN A   1       9.174  14.702  29.228  0.00  0.00    -0.287 OA
ENDBRANCH   2   5
ENDBRANCH   1   2
BRANCH   1   7
ATOM      7  CG  GLN A   1      12.039  12.749  27.541  0.00  0.00    +0.087 C 
BRANCH   7   8
ATOM      8  CD  GLN A   1      12.378  11.839  26.380  0.00  0.00    +0.219 C 
ATOM      9  OE1 GLN A   1      11.753  10.802  26.185  0.00  0.00    -0.275 OA
ATOM     10  NE2 GLN A   1      13.371  12.234  25.599  0.00  0.00    -0.329 N 
ATOM     11 HE21 GLN A   1      13.872  13.122  25.804  0.00  0.00    +0.145 HD
ATOM     12 HE22 GLN A   1      13.650  11.657  24.780  0.00  0.00    +0.145 HD
ENDBRANCH   7   8
ENDBRANCH   1   7
TORSDOF 5
REMARK  Name = ../refined-set-2016/3ujd/3ujd_pocket.pdb
REMARK  160 active torsions:
REMARK  status: ('A' for Active; 'I' for Inactive)
REMARK    1  A    between atoms: _1  and  _3
REMARK    2  A    between atoms: _3  and  _4
REMARK    3  A    between atoms: _3  and  _6
REMARK    4  A    between atoms: _6  and  _7
REMARK    5  A    between atoms: _7  and  _8
REMARK    6  A    between atoms: _13  and  _15
REMARK    7  A    between atoms: _15  and  _16
REMARK    8  A    between atoms: _15  and  _18
REMARK    9  A    between atoms: _18  and  _19
REMARK   10  A    between atoms: _25  and  _27
REMARK   11  A    between atoms: _27  and  _28
REMARK   12  A    between atoms: _30  and  _32
REMARK   13  A    between atoms: _32  and  _33
REMARK   14  A    between atoms: _32  and  _35
REMARK   15  A    between atoms: _35  and  _36
REMARK   16  A    between atoms: _41  and  _42
REMARK   17  A    between atoms: _44  and  _46
REMARK   18  A    between atoms: _46  and  _47
REMARK   19  A    between atoms: _46  and  _49
REMARK   20  A    between atoms: _49  and  _50
REMARK   21  A    between atoms: _53  and  _55
REMARK   22  A    between atoms: _55  and  _56
REMARK   23  A    between atoms: _55  and  _58
REMARK   24  A    between atoms: _58  and  _59
REMARK   25  A    between atoms: _65  and  _67
REMARK   26  A    between atoms: _67  and  _68
REMARK   27  A    between atoms: _67  and  _70
REMARK   28  A    between atoms: _70  and  _71
REMARK   29  A    between atoms: _76  and  _77
REMARK   30  A    between atoms: _79  and  _81
REMARK   31  A    between atoms: _81  and  _82
REMARK   32  A    between atoms: _81  and  _84
REMARK   33  A    between atoms: _84  and  _85
REMARK   34  A    between atoms: _88  and  _90
REMARK   35  A    between atoms: _90  and  _91
REMARK   36  A    between atoms: _90  and  _93
REMARK   37  A    between atoms: _93  and  _94
REMARK   38  A    between atoms: _96  and  _98
REMARK   39  A    between atoms: _98  and  _99
REMARK   40  A    between atoms: _98  and  _101
REMARK   41  A    between atoms: _101  and  _102
REMARK   42  A    between atoms: _104  and  _106
REMARK   43  A    between atoms: _106  and  _107
REMARK   44  A    between atoms: _109  and  _111
REMARK   45  A    between atoms: _111  and  _112
REMARK   46  A    between atoms: _114  and  _116
REMARK   47  A    between atoms: _116  and  _117
REMARK   48  A    between atoms: _119  and  _121
REMARK   49  A    between atoms: _121  and  _122
REMARK   50  A    between atoms: _124  and  _126
REMARK   51  A    between atoms: _126  and  _127
REMARK   52  A    between atoms: _126  and  _129
REMARK   53  A    between atoms: _129  and  _130
REMARK   54  A    between atoms: _130  and  _131
REMARK   55  A    between atoms: _131  and  _132
REMARK   56  A    between atoms: _141  and  _143
REMARK   57  A    between atoms: _143  and  _144
REMARK   58  A    between atoms: _143  and  _146
REMARK   59  A    between atoms: _146  and  _147
REMARK   60  A    between atoms: _150  and  _152
REMARK   61  A    between atoms: _152  and  _153
REMARK   62  A    between atoms: _156  and  _158
REMARK   63  A    between atoms: _158  and  _159
REMARK   64  A    between atoms: _158  and  _161
REMARK   65  A    between atoms: _161  and  _162
REMARK   66  A    between atoms: _165  and  _167
REMARK   67  A    between atoms: _167  and  _168
REMARK   68  A    between atoms: _167  and  _170
REMARK   69  A    between atoms: _170  and  _171
REMARK   70  A    between atoms: _174  and  _176
REMARK   71  A    between atoms: _176  and  _177
REMARK   72  A    between atoms: _176  and  _179
REMARK   73  A    between atoms: _179  and  _180
REMARK   74  A    between atoms: _185  and  _187
REMARK   75  A    between atoms: _187  and  _188
REMARK   76  A    between atoms: _187  and  _190
REMARK   77  A    between atoms: _190  and  _191
REMARK   78  A    between atoms: _194  and  _196
REMARK   79  A    between atoms: _196  and  _197
REMARK   80  A    between atoms: _196  and  _199
REMARK   81  A    between atoms: _199  and  _200
REMARK   82  A    between atoms: _203  and  _205
REMARK   83  A    between atoms: _205  and  _206
REMARK   84  A    between atoms: _205  and  _208
REMARK   85  A    between atoms: _208  and  _209
REMARK   86  A    between atoms: _214  and  _215
REMARK   87  A    between atoms: _217  and  _219
REMARK   88  A    between atoms: _219  and  _220
REMARK   89  A    between atoms: _219  and  _222
REMARK   90  A    between atoms: _222  and  _223
REMARK   91  A    between atoms: _228  and  _229
REMARK   92  A    between atoms: _231  and  _233
REMARK   93  A    between atoms: _233  and  _234
REMARK   94  A    between atoms: _233  and  _236
REMARK   95  A    between atoms: _236  and  _237
REMARK   96  A    between atoms: _237  and  _238
REMARK   97  A    between atoms: _243  and  _245
REMARK   98  A    between atoms: _245  and  _246
REMARK   99  A    between atoms: _245  and  _248
REMARK  100  A    between atoms: _248  and  _249
REMARK  101  A    between atoms: _249  and  _250
REMARK  102  A    between atoms: _250  and  _251
REMARK  103  A    between atoms: _260  and  _262
REMARK  104  A    between atoms: _262  and  _263
REMARK  105  A    between atoms: _262  and  _265
REMARK  106  A    between atoms: _265  and  _266
REMARK  107  A    between atoms: _271  and  _272
REMARK  108  A    between atoms: _274  and  _276
REMARK  109  A    between atoms: _276  and  _277
REMARK  110  A    between atoms: _276  and  _279
REMARK  111  A    between atoms: _279  and  _280
REMARK  112  A    between atoms: _283  and  _285
REMARK  113  A    between atoms: _285  and  _286
REMARK  114  A    between atoms: _285  and  _288
REMARK  115  A    between atoms: _288  and  _289
REMARK  116  A    between atoms: _299  and  _301
REMARK  117  A    between atoms: _301  and  _302
REMARK  118  A    between atoms: _301  and  _304
REMARK  119  A    between atoms: _304  and  _305
REMARK  120  A    between atoms: _308  and  _310
REMARK  121  A    between atoms: _310  and  _311
REMARK  122  A    between atoms: _310  and  _313
REMARK  123  A    between atoms: _313  and  _314
REMARK  124  A    between atoms: _314  and  _315
REMARK  125  A    between atoms: _318  and  _320
REMARK  126  A    between atoms: _320  and  _321
REMARK  127  A    between atoms: _320  and  _323
REMARK  128  A    between atoms: _323  and  _324
REMARK  129  A    between atoms: _326  and  _328
REMARK  130  A    between atoms: _328  and  _329
REMARK  131  A    between atoms: _328  and  _331
REMARK  132  A    between atoms: _331  and  _332
REMARK  133  A    between atoms: _335  and  _337
REMARK  134  A    between atoms: _337  and  _338
REMARK  135  A    between atoms: _340  and  _342
REMARK  136  A    between atoms: _342  and  _343
REMARK  137  A    between atoms: _342  and  _345
REMARK  138  A    between atoms: _345  and  _346
REMARK  139  A    between atoms: _356  and  _358
REMARK  140  A    between atoms: _358  and  _359
REMARK  141  A    between atoms: _358  and  _361
REMARK  142  A    between atoms: _361  and  _362
REMARK  143  A    between atoms: _362  and  _363
REMARK  144  A    between atoms: _363  and  _364
REMARK  145  A    between atoms: _373  and  _375
REMARK  146  A    between atoms: _375  and  _376
REMARK  147  A    between atoms: _375  and  _378
REMARK  148  A    between atoms: _378  and  _379
REMARK  149  A    between atoms: _379  and  _380
REMARK  150  A    between atoms: _380  and  _381
REMARK  151  A    between atoms: _381  and  _382
REMARK  152  A    between atoms: _386  and  _388
REMARK  153  A    between atoms: _388  and  _389
REMARK  154  A    between atoms: _388  and  _391
REMARK  155  A    between atoms: _391  and  _392
REMARK  156  A    between atoms: _392  and  _393
REMARK  157  A    between atoms: _398  and  _400
REMARK  158  A    between atoms: _400  and  _401
REMARK  159  A    between atoms: _400  and  _403
REMARK  160  A    between atoms: _403  and  _404
REMARK                            x       y       z     vdW  Elec       q    Type
REMARK                         _______ _______ _______ _____ _____    ______ ____
ROOT
ATOM      1  CG  TRP A   1      12.082  20.104  24.803  0.00  0.00    -0.002 A 
ATOM      2  CD1 TRP A   1      13.307  19.604  24.439  0.00  0.00    +0.068 A 
ATOM      3  NE1 TRP A   1      13.745  20.224  23.281  0.00  0.00    -0.352 N 
ATOM      4  CE2 TRP A   1      12.796  21.128  22.881  0.00  0.00    +0.056 A 
ATOM      5  CZ2 TRP A   1      12.785  21.992  21.784  0.00  0.00    +0.017 A 
ATOM      6  CH2 TRP A   1      11.693  22.804  21.630  0.00  0.00    +0.001 A 
ATOM      7  CZ3 TRP A   1      10.627  22.779  22.537  0.00  0.00    +0.000 A 
ATOM      8  CE3 TRP A   1      10.639  21.932  23.634  0.00  0.00    +0.001 A 
ATOM      9  HE1 TRP A   1      14.645  20.035  22.795  0.00  0.00    +0.166 HD
ATOM     10  CD2 TRP A   1      11.743  21.090  23.822  0.00  0.00    +0.013 A 
ENDROOT
BRANCH   1  11
ATOM     11  CB  TRP A   1      11.256  19.688  25.990  0.00  0.00    +0.053 C 
BRANCH  11  12
ATOM     12  CA  TRP A   1      12.077  19.486  27.269  0.00  0.00    +0.137 C 
BRANCH  12  13
ATOM     13  N   TRP A   1      11.344  18.691  28.239  0.00  0.00    -0.239 NA
ATOM     14  H   TRP A   1      10.463  19.064  28.648  0.00  0.00    +0.142 HD
ENDBRANCH  12  13
BRANCH  12  15
ATOM     15  C   TRP A   1      12.390  20.819  27.913  0.00  0.00    +0.224 C 
ATOM     16  O   TRP A   1      11.483  21.550  28.318  0.00  0.00    -0.287 OA
ENDBRANCH  12  15
ENDBRANCH  11  12
ENDBRANCH   1  11
TORSDOF 4
REMARK  Name = ../refined-set-2016/3ujd/3ujd_pocket.pdb
REMARK  160 active torsions:
REMARK  status: ('A' for Active; 'I' for Inactive)
REMARK    1  A    between atoms: _1  and  _3
REMARK    2  A    between atoms: _3  and  _4
REMARK    3  A    between atoms: _3  and  _6
REMARK    4  A    between atoms: _6  and  _7
REMARK    5  A    between atoms: _7  and  _8
REMARK    6  A    between atoms: _13  and  _15
REMARK    7  A    between atoms: _15  and  _16
REMARK    8  A    between atoms: _15  and  _18
REMARK    9  A    between atoms: _18  and  _19
REMARK   10  A    between atoms: _25  and  _27
REMARK   11  A    between atoms: _27  and  _28
REMARK   12  A    between atoms: _30  and  _32
REMARK   13  A    between atoms: _32  and  _33
REMARK   14  A    between atoms: _32  and  _35
REMARK   15  A    between atoms: _35  and  _36
REMARK   16  A    between atoms: _41  and  _42
REMARK   17  A    between atoms: _44  and  _46
REMARK   18  A    between atoms: _46  and  _47
REMARK   19  A    between atoms: _46  and  _49
REMARK   20  A    between atoms: _49  and  _50
REMARK   21  A    between atoms: _53  and  _55
REMARK   22  A    between atoms: _55  and  _56
REMARK   23  A    between atoms: _55  and  _58
REMARK   24  A    between atoms: _58  and  _59
REMARK   25  A    between atoms: _65  and  _67
REMARK   26  A    between atoms: _67  and  _68
REMARK   27  A    between atoms: _67  and  _70
REMARK   28  A    between atoms: _70  and  _71
REMARK   29  A    between atoms: _76  and  _77
REMARK   30  A    between atoms: _79  and  _81
REMARK   31  A    between atoms: _81  and  _82
REMARK   32  A    between atoms: _81  and  _84
REMARK   33  A    between atoms: _84  and  _85
REMARK   34  A    between atoms: _88  and  _90
REMARK   35  A    between atoms: _90  and  _91
REMARK   36  A    between atoms: _90  and  _93
REMARK   37  A    between atoms: _93  and  _94
REMARK   38  A    between atoms: _96  and  _98
REMARK   39  A    between atoms: _98  and  _99
REMARK   40  A    between atoms: _98  and  _101
REMARK   41  A    between atoms: _101  and  _102
REMARK   42  A    between atoms: _104  and  _106
REMARK   43  A    between atoms: _106  and  _107
REMARK   44  A    between atoms: _109  and  _111
REMARK   45  A    between atoms: _111  and  _112
REMARK   46  A    between atoms: _114  and  _116
REMARK   47  A    between atoms: _116  and  _117
REMARK   48  A    between atoms: _119  and  _121
REMARK   49  A    between atoms: _121  and  _122
REMARK   50  A    between atoms: _124  and  _126
REMARK   51  A    between atoms: _126  and  _127
REMARK   52  A    between atoms: _126  and  _129
REMARK   53  A    between atoms: _129  and  _130
REMARK   54  A    between atoms: _130  and  _131
REMARK   55  A    between atoms: _131  and  _132
REMARK   56  A    between atoms: _141  and  _143
REMARK   57  A    between atoms: _143  and  _144
REMARK   58  A    between atoms: _143  and  _146
REMARK   59  A    between atoms: _146  and  _147
REMARK   60  A    between atoms: _150  and  _152
REMARK   61  A    between atoms: _152  and  _153
REMARK   62  A    between atoms: _156  and  _158
REMARK   63  A    between atoms: _158  and  _159
REMARK   64  A    between atoms: _158  and  _161
REMARK   65  A    between atoms: _161  and  _162
REMARK   66  A    between atoms: _165  and  _167
REMARK   67  A    between atoms: _167  and  _168
REMARK   68  A    between atoms: _167  and  _170
REMARK   69  A    between atoms: _170  and  _171
REMARK   70  A    between atoms: _174  and  _176
REMARK   71  A    between atoms: _176  and  _177
REMARK   72  A    between atoms: _176  and  _179
REMARK   73  A    between atoms: _179  and  _180
REMARK   74  A    between atoms: _185  and  _187
REMARK   75  A    between atoms: _187  and  _188
REMARK   76  A    between atoms: _187  and  _190
REMARK   77  A    between atoms: _190  and  _191
REMARK   78  A    between atoms: _194  and  _196
REMARK   79  A    between atoms: _196  and  _197
REMARK   80  A    between atoms: _196  and  _199
REMARK   81  A    between atoms: _199  and  _200
REMARK   82  A    between atoms: _203  and  _205
REMARK   83  A    between atoms: _205  and  _206
REMARK   84  A    between atoms: _205  and  _208
REMARK   85  A    between atoms: _208  and  _209
REMARK   86  A    between atoms: _214  and  _215
REMARK   87  A    between atoms: _217  and  _219
REMARK   88  A    between atoms: _219  and  _220
REMARK   89  A    between atoms: _219  and  _222
REMARK   90  A    between atoms: _222  and  _223
REMARK   91  A    between atoms: _228  and  _229
REMARK   92  A    between atoms: _231  and  _233
REMARK   93  A    between atoms: _233  and  _234
REMARK   94  A    between atoms: _233  and  _236
REMARK   95  A    between atoms: _236  and  _237
REMARK   96  A    between atoms: _237  and  _238
REMARK   97  A    between atoms: _243  and  _245
REMARK   98  A    between atoms: _245  and  _246
REMARK   99  A    between atoms: _245  and  _248
REMARK  100  A    between atoms: _248  and  _249
REMARK  101  A    between atoms: _249  and  _250
REMARK  102  A    between atoms: _250  and  _251
REMARK  103  A    between atoms: _260  and  _262
REMARK  104  A    between atoms: _262  and  _263
REMARK  105  A    between atoms: _262  and  _265
REMARK  106  A    between atoms: _265  and  _266
REMARK  107  A    between atoms: _271  and  _272
REMARK  108  A    between atoms: _274  and  _276
REMARK  109  A    between atoms: _276  and  _277
REMARK  110  A    between atoms: _276  and  _279
REMARK  111  A    between atoms: _279  and  _280
REMARK  112  A    between atoms: _283  and  _285
REMARK  113  A    between atoms: _285  and  _286
REMARK  114  A    between atoms: _285  and  _288
REMARK  115  A    between atoms: _288  and  _289
REMARK  116  A    between atoms: _299  and  _301
REMARK  117  A    between atoms: _301  and  _302
REMARK  118  A    between atoms: _301  and  _304
REMARK  119  A    between atoms: _304  and  _305
REMARK  120  A    between atoms: _308  and  _310
REMARK  121  A    between atoms: _310  and  _311
REMARK  122  A    between atoms: _310  and  _313
REMARK  123  A    between atoms: _313  and  _314
REMARK  124  A    between atoms: _314  and  _315
REMARK  125  A    between atoms: _318  and  _320
REMARK  126  A    between atoms: _320  and  _321
REMARK  127  A    between atoms: _320  and  _323
REMARK  128  A    between atoms: _323  and  _324
REMARK  129  A    between atoms: _326  and  _328
REMARK  130  A    between atoms: _328  and  _329
REMARK  131  A    between atoms: _328  and  _331
REMARK  132  A    between atoms: _331  and  _332
REMARK  133  A    between atoms: _335  and  _337
REMARK  134  A    between atoms: _337  and  _338
REMARK  135  A    between atoms: _340  and  _342
REMARK  136  A    between atoms: _342  and  _343
REMARK  137  A    between atoms: _342  and  _345
REMARK  138  A    between atoms: _345  and  _346
REMARK  139  A    between atoms: _356  and  _358
REMARK  140  A    between atoms: _358  and  _359
REMARK  141  A    between atoms: _358  and  _361
REMARK  142  A    between atoms: _361  and  _362
REMARK  143  A    between atoms: _362  and  _363
REMARK  144  A    between atoms: _363  and  _364
REMARK  145  A    between atoms: _373  and  _375
REMARK  146  A    between atoms: _375  and  _376
REMARK  147  A    between atoms: _375  and  _378
REMARK  148  A    between atoms: _378  and  _379
REMARK  149  A    between atoms: _379  and  _380
REMARK  150  A    between atoms: _380  and  _381
REMARK  151  A    between atoms: _381  and  _382
REMARK  152  A    between atoms: _386  and  _388
REMARK  153  A    between atoms: _388  and  _389
REMARK  154  A    between atoms: _388  and  _391
REMARK  155  A    between atoms: _391  and  _392
REMARK  156  A    between atoms: _392  and  _393
REMARK  157  A    between atoms: _398  and  _400
REMARK  158  A    between atoms: _400  and  _401
REMARK  159  A    between atoms: _400  and  _403
REMARK  160  A    between atoms: _403  and  _404
REMARK                            x       y       z     vdW  Elec       q    Type
REMARK                         _______ _______ _______ _____ _____    ______ ____
ROOT
ATOM      1  O   HOH     1      25.236  16.527  18.829  0.00  0.00    +0.000 OA
ENDROOT
TORSDOF 0
REMARK  Name = ../refined-set-2016/3ujd/3ujd_pocket.pdb
REMARK  160 active torsions:
REMARK  status: ('A' for Active; 'I' for Inactive)
REMARK    1  A    between atoms: _1  and  _3
REMARK    2  A    between atoms: _3  and  _4
REMARK    3  A    between atoms: _3  and  _6
REMARK    4  A    between atoms: _6  and  _7
REMARK    5  A    between atoms: _7  and  _8
REMARK    6  A    between atoms: _13  and  _15
REMARK    7  A    between atoms: _15  and  _16
REMARK    8  A    between atoms: _15  and  _18
REMARK    9  A    between atoms: _18  and  _19
REMARK   10  A    between atoms: _25  and  _27
REMARK   11  A    between atoms: _27  and  _28
REMARK   12  A    between atoms: _30  and  _32
REMARK   13  A    between atoms: _32  and  _33
REMARK   14  A    between atoms: _32  and  _35
REMARK   15  A    between atoms: _35  and  _36
REMARK   16  A    between atoms: _41  and  _42
REMARK   17  A    between atoms: _44  and  _46
REMARK   18  A    between atoms: _46  and  _47
REMARK   19  A    between atoms: _46  and  _49
REMARK   20  A    between atoms: _49  and  _50
REMARK   21  A    between atoms: _53  and  _55
REMARK   22  A    between atoms: _55  and  _56
REMARK   23  A    between atoms: _55  and  _58
REMARK   24  A    between atoms: _58  and  _59
REMARK   25  A    between atoms: _65  and  _67
REMARK   26  A    between atoms: _67  and  _68
REMARK   27  A    between atoms: _67  and  _70
REMARK   28  A    between atoms: _70  and  _71
REMARK   29  A    between atoms: _76  and  _77
REMARK   30  A    between atoms: _79  and  _81
REMARK   31  A    between atoms: _81  and  _82
REMARK   32  A    between atoms: _81  and  _84
REMARK   33  A    between atoms: _84  and  _85
REMARK   34  A    between atoms: _88  and  _90
REMARK   35  A    between atoms: _90  and  _91
REMARK   36  A    between atoms: _90  and  _93
REMARK   37  A    between atoms: _93  and  _94
REMARK   38  A    between atoms: _96  and  _98
REMARK   39  A    between atoms: _98  and  _99
REMARK   40  A    between atoms: _98  and  _101
REMARK   41  A    between atoms: _101  and  _102
REMARK   42  A    between atoms: _104  and  _106
REMARK   43  A    between atoms: _106  and  _107
REMARK   44  A    between atoms: _109  and  _111
REMARK   45  A    between atoms: _111  and  _112
REMARK   46  A    between atoms: _114  and  _116
REMARK   47  A    between atoms: _116  and  _117
REMARK   48  A    between atoms: _119  and  _121
REMARK   49  A    between atoms: _121  and  _122
REMARK   50  A    between atoms: _124  and  _126
REMARK   51  A    between atoms: _126  and  _127
REMARK   52  A    between atoms: _126  and  _129
REMARK   53  A    between atoms: _129  and  _130
REMARK   54  A    between atoms: _130  and  _131
REMARK   55  A    between atoms: _131  and  _132
REMARK   56  A    between atoms: _141  and  _143
REMARK   57  A    between atoms: _143  and  _144
REMARK   58  A    between atoms: _143  and  _146
REMARK   59  A    between atoms: _146  and  _147
REMARK   60  A    between atoms: _150  and  _152
REMARK   61  A    between atoms: _152  and  _153
REMARK   62  A    between atoms: _156  and  _158
REMARK   63  A    between atoms: _158  and  _159
REMARK   64  A    between atoms: _158  and  _161
REMARK   65  A    between atoms: _161  and  _162
REMARK   66  A    between atoms: _165  and  _167
REMARK   67  A    between atoms: _167  and  _168
REMARK   68  A    between atoms: _167  and  _170
REMARK   69  A    between atoms: _170  and  _171
REMARK   70  A    between atoms: _174  and  _176
REMARK   71  A    between atoms: _176  and  _177
REMARK   72  A    between atoms: _176  and  _179
REMARK   73  A    between atoms: _179  and  _180
REMARK   74  A    between atoms: _185  and  _187
REMARK   75  A    between atoms: _187  and  _188
REMARK   76  A    between atoms: _187  and  _190
REMARK   77  A    between atoms: _190  and  _191
REMARK   78  A    between atoms: _194  and  _196
REMARK   79  A    between atoms: _196  and  _197
REMARK   80  A    between atoms: _196  and  _199
REMARK   81  A    between atoms: _199  and  _200
REMARK   82  A    between atoms: _203  and  _205
REMARK   83  A    between atoms: _205  and  _206
REMARK   84  A    between atoms: _205  and  _208
REMARK   85  A    between atoms: _208  and  _209
REMARK   86  A    between atoms: _214  and  _215
REMARK   87  A    between atoms: _217  and  _219
REMARK   88  A    between atoms: _219  and  _220
REMARK   89  A    between atoms: _219  and  _222
REMARK   90  A    between atoms: _222  and  _223
REMARK   91  A    between atoms: _228  and  _229
REMARK   92  A    between atoms: _231  and  _233
REMARK   93  A    between atoms: _233  and  _234
REMARK   94  A    between atoms: _233  and  _236
REMARK   95  A    between atoms: _236  and  _237
REMARK   96  A    between atoms: _237  and  _238
REMARK   97  A    between atoms: _243  and  _245
REMARK   98  A    between atoms: _245  and  _246
REMARK   99  A    between atoms: _245  and  _248
REMARK  100  A    between atoms: _248  and  _249
REMARK  101  A    between atoms: _249  and  _250
REMARK  102  A    between atoms: _250  and  _251
REMARK  103  A    between atoms: _260  and  _262
REMARK  104  A    between atoms: _262  and  _263
REMARK  105  A    between atoms: _262  and  _265
REMARK  106  A    between atoms: _265  and  _266
REMARK  107  A    between atoms: _271  and  _272
REMARK  108  A    between atoms: _274  and  _276
REMARK  109  A    between atoms: _276  and  _277
REMARK  110  A    between atoms: _276  and  _279
REMARK  111  A    between atoms: _279  and  _280
REMARK  112  A    between atoms: _283  and  _285
REMARK  113  A    between atoms: _285  and  _286
REMARK  114  A    between atoms: _285  and  _288
REMARK  115  A    between atoms: _288  and  _289
REMARK  116  A    between atoms: _299  and  _301
REMARK  117  A    between atoms: _301  and  _302
REMARK  118  A    between atoms: _301  and  _304
REMARK  119  A    between atoms: _304  and  _305
REMARK  120  A    between atoms: _308  and  _310
REMARK  121  A    between atoms: _310  and  _311
REMARK  122  A    between atoms: _310  and  _313
REMARK  123  A    between atoms: _313  and  _314
REMARK  124  A    between atoms: _314  and  _315
REMARK  125  A    between atoms: _318  and  _320
REMARK  126  A    between atoms: _320  and  _321
REMARK  127  A    between atoms: _320  and  _323
REMARK  128  A    between atoms: _323  and  _324
REMARK  129  A    between atoms: _326  and  _328
REMARK  130  A    between atoms: _328  and  _329
REMARK  131  A    between atoms: _328  and  _331
REMARK  132  A    between atoms: _331  and  _332
REMARK  133  A    between atoms: _335  and  _337
REMARK  134  A    between atoms: _337  and  _338
REMARK  135  A    between atoms: _340  and  _342
REMARK  136  A    between atoms: _342  and  _343
REMARK  137  A    between atoms: _342  and  _345
REMARK  138  A    between atoms: _345  and  _346
REMARK  139  A    between atoms: _356  and  _358
REMARK  140  A    between atoms: _358  and  _359
REMARK  141  A    between atoms: _358  and  _361
REMARK  142  A    between atoms: _361  and  _362
REMARK  143  A    between atoms: _362  and  _363
REMARK  144  A    between atoms: _363  and  _364
REMARK  145  A    between atoms: _373  and  _375
REMARK  146  A    between atoms: _375  and  _376
REMARK  147  A    between atoms: _375  and  _378
REMARK  148  A    between atoms: _378  and  _379
REMARK  149  A    between atoms: _379  and  _380
REMARK  150  A    between atoms: _380  and  _381
REMARK  151  A    between atoms: _381  and  _382
REMARK  152  A    between atoms: _386  and  _388
REMARK  153  A    between atoms: _388  and  _389
REMARK  154  A    between atoms: _388  and  _391
REMARK  155  A    between atoms: _391  and  _392
REMARK  156  A    between atoms: _392  and  _393
REMARK  157  A    between atoms: _398  and  _400
REMARK  158  A    between atoms: _400  and  _401
REMARK  159  A    between atoms: _400  and  _403
REMARK  160  A    between atoms: _403  and  _404
REMARK                            x       y       z     vdW  Elec       q    Type
REMARK                         _______ _______ _______ _____ _____    ______ ____
ROOT
ATOM      1  O   HOH     1      14.936   2.615  18.313  0.00  0.00    +0.000 OA
ENDROOT
TORSDOF 0
REMARK  Name = ../refined-set-2016/3ujd/3ujd_pocket.pdb
REMARK  160 active torsions:
REMARK  status: ('A' for Active; 'I' for Inactive)
REMARK    1  A    between atoms: _1  and  _3
REMARK    2  A    between atoms: _3  and  _4
REMARK    3  A    between atoms: _3  and  _6
REMARK    4  A    between atoms: _6  and  _7
REMARK    5  A    between atoms: _7  and  _8
REMARK    6  A    between atoms: _13  and  _15
REMARK    7  A    between atoms: _15  and  _16
REMARK    8  A    between atoms: _15  and  _18
REMARK    9  A    between atoms: _18  and  _19
REMARK   10  A    between atoms: _25  and  _27
REMARK   11  A    between atoms: _27  and  _28
REMARK   12  A    between atoms: _30  and  _32
REMARK   13  A    between atoms: _32  and  _33
REMARK   14  A    between atoms: _32  and  _35
REMARK   15  A    between atoms: _35  and  _36
REMARK   16  A    between atoms: _41  and  _42
REMARK   17  A    between atoms: _44  and  _46
REMARK   18  A    between atoms: _46  and  _47
REMARK   19  A    between atoms: _46  and  _49
REMARK   20  A    between atoms: _49  and  _50
REMARK   21  A    between atoms: _53  and  _55
REMARK   22  A    between atoms: _55  and  _56
REMARK   23  A    between atoms: _55  and  _58
REMARK   24  A    between atoms: _58  and  _59
REMARK   25  A    between atoms: _65  and  _67
REMARK   26  A    between atoms: _67  and  _68
REMARK   27  A    between atoms: _67  and  _70
REMARK   28  A    between atoms: _70  and  _71
REMARK   29  A    between atoms: _76  and  _77
REMARK   30  A    between atoms: _79  and  _81
REMARK   31  A    between atoms: _81  and  _82
REMARK   32  A    between atoms: _81  and  _84
REMARK   33  A    between atoms: _84  and  _85
REMARK   34  A    between atoms: _88  and  _90
REMARK   35  A    between atoms: _90  and  _91
REMARK   36  A    between atoms: _90  and  _93
REMARK   37  A    between atoms: _93  and  _94
REMARK   38  A    between atoms: _96  and  _98
REMARK   39  A    between atoms: _98  and  _99
REMARK   40  A    between atoms: _98  and  _101
REMARK   41  A    between atoms: _101  and  _102
REMARK   42  A    between atoms: _104  and  _106
REMARK   43  A    between atoms: _106  and  _107
REMARK   44  A    between atoms: _109  and  _111
REMARK   45  A    between atoms: _111  and  _112
REMARK   46  A    between atoms: _114  and  _116
REMARK   47  A    between atoms: _116  and  _117
REMARK   48  A    between atoms: _119  and  _121
REMARK   49  A    between atoms: _121  and  _122
REMARK   50  A    between atoms: _124  and  _126
REMARK   51  A    between atoms: _126  and  _127
REMARK   52  A    between atoms: _126  and  _129
REMARK   53  A    between atoms: _129  and  _130
REMARK   54  A    between atoms: _130  and  _131
REMARK   55  A    between atoms: _131  and  _132
REMARK   56  A    between atoms: _141  and  _143
REMARK   57  A    between atoms: _143  and  _144
REMARK   58  A    between atoms: _143  and  _146
REMARK   59  A    between atoms: _146  and  _147
REMARK   60  A    between atoms: _150  and  _152
REMARK   61  A    between atoms: _152  and  _153
REMARK   62  A    between atoms: _156  and  _158
REMARK   63  A    between atoms: _158  and  _159
REMARK   64  A    between atoms: _158  and  _161
REMARK   65  A    between atoms: _161  and  _162
REMARK   66  A    between atoms: _165  and  _167
REMARK   67  A    between atoms: _167  and  _168
REMARK   68  A    between atoms: _167  and  _170
REMARK   69  A    between atoms: _170  and  _171
REMARK   70  A    between atoms: _174  and  _176
REMARK   71  A    between atoms: _176  and  _177
REMARK   72  A    between atoms: _176  and  _179
REMARK   73  A    between atoms: _179  and  _180
REMARK   74  A    between atoms: _185  and  _187
REMARK   75  A    between atoms: _187  and  _188
REMARK   76  A    between atoms: _187  and  _190
REMARK   77  A    between atoms: _190  and  _191
REMARK   78  A    between atoms: _194  and  _196
REMARK   79  A    between atoms: _196  and  _197
REMARK   80  A    between atoms: _196  and  _199
REMARK   81  A    between atoms: _199  and  _200
REMARK   82  A    between atoms: _203  and  _205
REMARK   83  A    between atoms: _205  and  _206
REMARK   84  A    between atoms: _205  and  _208
REMARK   85  A    between atoms: _208  and  _209
REMARK   86  A    between atoms: _214  and  _215
REMARK   87  A    between atoms: _217  and  _219
REMARK   88  A    between atoms: _219  and  _220
REMARK   89  A    between atoms: _219  and  _222
REMARK   90  A    between atoms: _222  and  _223
REMARK   91  A    between atoms: _228  and  _229
REMARK   92  A    between atoms: _231  and  _233
REMARK   93  A    between atoms: _233  and  _234
REMARK   94  A    between atoms: _233  and  _236
REMARK   95  A    between atoms: _236  and  _237
REMARK   96  A    between atoms: _237  and  _238
REMARK   97  A    between atoms: _243  and  _245
REMARK   98  A    between atoms: _245  and  _246
REMARK   99  A    between atoms: _245  and  _248
REMARK  100  A    between atoms: _248  and  _249
REMARK  101  A    between atoms: _249  and  _250
REMARK  102  A    between atoms: _250  and  _251
REMARK  103  A    between atoms: _260  and  _262
REMARK  104  A    between atoms: _262  and  _263
REMARK  105  A    between atoms: _262  and  _265
REMARK  106  A    between atoms: _265  and  _266
REMARK  107  A    between atoms: _271  and  _272
REMARK  108  A    between atoms: _274  and  _276
REMARK  109  A    between atoms: _276  and  _277
REMARK  110  A    between atoms: _276  and  _279
REMARK  111  A    between atoms: _279  and  _280
REMARK  112  A    between atoms: _283  and  _285
REMARK  113  A    between atoms: _285  and  _286
REMARK  114  A    between atoms: _285  and  _288
REMARK  115  A    between atoms: _288  and  _289
REMARK  116  A    between atoms: _299  and  _301
REMARK  117  A    between atoms: _301  and  _302
REMARK  118  A    between atoms: _301  and  _304
REMARK  119  A    between atoms: _304  and  _305
REMARK  120  A    between atoms: _308  and  _310
REMARK  121  A    between atoms: _310  and  _311
REMARK  122  A    between atoms: _310  and  _313
REMARK  123  A    between atoms: _313  and  _314
REMARK  124  A    between atoms: _314  and  _315
REMARK  125  A    between atoms: _318  and  _320
REMARK  126  A    between atoms: _320  and  _321
REMARK  127  A    between atoms: _320  and  _323
REMARK  128  A    between atoms: _323  and  _324
REMARK  129  A    between atoms: _326  and  _328
REMARK  130  A    between atoms: _328  and  _329
REMARK  131  A    between atoms: _328  and  _331
REMARK  132  A    between atoms: _331  and  _332
REMARK  133  A    between atoms: _335  and  _337
REMARK  134  A    between atoms: _337  and  _338
REMARK  135  A    between atoms: _340  and  _342
REMARK  136  A    between atoms: _342  and  _343
REMARK  137  A    between atoms: _342  and  _345
REMARK  138  A    between atoms: _345  and  _346
REMARK  139  A    between atoms: _356  and  _358
REMARK  140  A    between atoms: _358  and  _359
REMARK  141  A    between atoms: _358  and  _361
REMARK  142  A    between atoms: _361  and  _362
REMARK  143  A    between atoms: _362  and  _363
REMARK  144  A    between atoms: _363  and  _364
REMARK  145  A    between atoms: _373  and  _375
REMARK  146  A    between atoms: _375  and  _376
REMARK  147  A    between atoms: _375  and  _378
REMARK  148  A    between atoms: _378  and  _379
REMARK  149  A    between atoms: _379  and  _380
REMARK  150  A    between atoms: _380  and  _381
REMARK  151  A    between atoms: _381  and  _382
REMARK  152  A    between atoms: _386  and  _388
REMARK  153  A    between atoms: _388  and  _389
REMARK  154  A    between atoms: _388  and  _391
REMARK  155  A    between atoms: _391  and  _392
REMARK  156  A    between atoms: _392  and  _393
REMARK  157  A    between atoms: _398  and  _400
REMARK  158  A    between atoms: _400  and  _401
REMARK  159  A    between atoms: _400  and  _403
REMARK  160  A    between atoms: _403  and  _404
REMARK                            x       y       z     vdW  Elec       q    Type
REMARK                         _______ _______ _______ _____ _____    ______ ____
ROOT
ATOM      1  O   HOH     1      14.628   6.189  14.940  0.00  0.00    +0.000 OA
ENDROOT
TORSDOF 0
REMARK  Name = ../refined-set-2016/3ujd/3ujd_pocket.pdb
REMARK  160 active torsions:
REMARK  status: ('A' for Active; 'I' for Inactive)
REMARK    1  A    between atoms: _1  and  _3
REMARK    2  A    between atoms: _3  and  _4
REMARK    3  A    between atoms: _3  and  _6
REMARK    4  A    between atoms: _6  and  _7
REMARK    5  A    between atoms: _7  and  _8
REMARK    6  A    between atoms: _13  and  _15
REMARK    7  A    between atoms: _15  and  _16
REMARK    8  A    between atoms: _15  and  _18
REMARK    9  A    between atoms: _18  and  _19
REMARK   10  A    between atoms: _25  and  _27
REMARK   11  A    between atoms: _27  and  _28
REMARK   12  A    between atoms: _30  and  _32
REMARK   13  A    between atoms: _32  and  _33
REMARK   14  A    between atoms: _32  and  _35
REMARK   15  A    between atoms: _35  and  _36
REMARK   16  A    between atoms: _41  and  _42
REMARK   17  A    between atoms: _44  and  _46
REMARK   18  A    between atoms: _46  and  _47
REMARK   19  A    between atoms: _46  and  _49
REMARK   20  A    between atoms: _49  and  _50
REMARK   21  A    between atoms: _53  and  _55
REMARK   22  A    between atoms: _55  and  _56
REMARK   23  A    between atoms: _55  and  _58
REMARK   24  A    between atoms: _58  and  _59
REMARK   25  A    between atoms: _65  and  _67
REMARK   26  A    between atoms: _67  and  _68
REMARK   27  A    between atoms: _67  and  _70
REMARK   28  A    between atoms: _70  and  _71
REMARK   29  A    between atoms: _76  and  _77
REMARK   30  A    between atoms: _79  and  _81
REMARK   31  A    between atoms: _81  and  _82
REMARK   32  A    between atoms: _81  and  _84
REMARK   33  A    between atoms: _84  and  _85
REMARK   34  A    between atoms: _88  and  _90
REMARK   35  A    between atoms: _90  and  _91
REMARK   36  A    between atoms: _90  and  _93
REMARK   37  A    between atoms: _93  and  _94
REMARK   38  A    between atoms: _96  and  _98
REMARK   39  A    between atoms: _98  and  _99
REMARK   40  A    between atoms: _98  and  _101
REMARK   41  A    between atoms: _101  and  _102
REMARK   42  A    between atoms: _104  and  _106
REMARK   43  A    between atoms: _106  and  _107
REMARK   44  A    between atoms: _109  and  _111
REMARK   45  A    between atoms: _111  and  _112
REMARK   46  A    between atoms: _114  and  _116
REMARK   47  A    between atoms: _116  and  _117
REMARK   48  A    between atoms: _119  and  _121
REMARK   49  A    between atoms: _121  and  _122
REMARK   50  A    between atoms: _124  and  _126
REMARK   51  A    between atoms: _126  and  _127
REMARK   52  A    between atoms: _126  and  _129
REMARK   53  A    between atoms: _129  and  _130
REMARK   54  A    between atoms: _130  and  _131
REMARK   55  A    between atoms: _131  and  _132
REMARK   56  A    between atoms: _141  and  _143
REMARK   57  A    between atoms: _143  and  _144
REMARK   58  A    between atoms: _143  and  _146
REMARK   59  A    between atoms: _146  and  _147
REMARK   60  A    between atoms: _150  and  _152
REMARK   61  A    between atoms: _152  and  _153
REMARK   62  A    between atoms: _156  and  _158
REMARK   63  A    between atoms: _158  and  _159
REMARK   64  A    between atoms: _158  and  _161
REMARK   65  A    between atoms: _161  and  _162
REMARK   66  A    between atoms: _165  and  _167
REMARK   67  A    between atoms: _167  and  _168
REMARK   68  A    between atoms: _167  and  _170
REMARK   69  A    between atoms: _170  and  _171
REMARK   70  A    between atoms: _174  and  _176
REMARK   71  A    between atoms: _176  and  _177
REMARK   72  A    between atoms: _176  and  _179
REMARK   73  A    between atoms: _179  and  _180
REMARK   74  A    between atoms: _185  and  _187
REMARK   75  A    between atoms: _187  and  _188
REMARK   76  A    between atoms: _187  and  _190
REMARK   77  A    between atoms: _190  and  _191
REMARK   78  A    between atoms: _194  and  _196
REMARK   79  A    between atoms: _196  and  _197
REMARK   80  A    between atoms: _196  and  _199
REMARK   81  A    between atoms: _199  and  _200
REMARK   82  A    between atoms: _203  and  _205
REMARK   83  A    between atoms: _205  and  _206
REMARK   84  A    between atoms: _205  and  _208
REMARK   85  A    between atoms: _208  and  _209
REMARK   86  A    between atoms: _214  and  _215
REMARK   87  A    between atoms: _217  and  _219
REMARK   88  A    between atoms: _219  and  _220
REMARK   89  A    between atoms: _219  and  _222
REMARK   90  A    between atoms: _222  and  _223
REMARK   91  A    between atoms: _228  and  _229
REMARK   92  A    between atoms: _231  and  _233
REMARK   93  A    between atoms: _233  and  _234
REMARK   94  A    between atoms: _233  and  _236
REMARK   95  A    between atoms: _236  and  _237
REMARK   96  A    between atoms: _237  and  _238
REMARK   97  A    between atoms: _243  and  _245
REMARK   98  A    between atoms: _245  and  _246
REMARK   99  A    between atoms: _245  and  _248
REMARK  100  A    between atoms: _248  and  _249
REMARK  101  A    between atoms: _249  and  _250
REMARK  102  A    between atoms: _250  and  _251
REMARK  103  A    between atoms: _260  and  _262
REMARK  104  A    between atoms: _262  and  _263
REMARK  105  A    between atoms: _262  and  _265
REMARK  106  A    between atoms: _265  and  _266
REMARK  107  A    between atoms: _271  and  _272
REMARK  108  A    between atoms: _274  and  _276
REMARK  109  A    between atoms: _276  and  _277
REMARK  110  A    between atoms: _276  and  _279
REMARK  111  A    between atoms: _279  and  _280
REMARK  112  A    between atoms: _283  and  _285
REMARK  113  A    between atoms: _285  and  _286
REMARK  114  A    between atoms: _285  and  _288
REMARK  115  A    between atoms: _288  and  _289
REMARK  116  A    between atoms: _299  and  _301
REMARK  117  A    between atoms: _301  and  _302
REMARK  118  A    between atoms: _301  and  _304
REMARK  119  A    between atoms: _304  and  _305
REMARK  120  A    between atoms: _308  and  _310
REMARK  121  A    between atoms: _310  and  _311
REMARK  122  A    between atoms: _310  and  _313
REMARK  123  A    between atoms: _313  and  _314
REMARK  124  A    between atoms: _314  and  _315
REMARK  125  A    between atoms: _318  and  _320
REMARK  126  A    between atoms: _320  and  _321
REMARK  127  A    between atoms: _320  and  _323
REMARK  128  A    between atoms: _323  and  _324
REMARK  129  A    between atoms: _326  and  _328
REMARK  130  A    between atoms: _328  and  _329
REMARK  131  A    between atoms: _328  and  _331
REMARK  132  A    between atoms: _331  and  _332
REMARK  133  A    between atoms: _335  and  _337
REMARK  134  A    between atoms: _337  and  _338
REMARK  135  A    between atoms: _340  and  _342
REMARK  136  A    between atoms: _342  and  _343
REMARK  137  A    between atoms: _342  and  _345
REMARK  138  A    between atoms: _345  and  _346
REMARK  139  A    between atoms: _356  and  _358
REMARK  140  A    between atoms: _358  and  _359
REMARK  141  A    between atoms: _358  and  _361
REMARK  142  A    between atoms: _361  and  _362
REMARK  143  A    between atoms: _362  and  _363
REMARK  144  A    between atoms: _363  and  _364
REMARK  145  A    between atoms: _373  and  _375
REMARK  146  A    between atoms: _375  and  _376
REMARK  147  A    between atoms: _375  and  _378
REMARK  148  A    between atoms: _378  and  _379
REMARK  149  A    between atoms: _379  and  _380
REMARK  150  A    between atoms: _380  and  _381
REMARK  151  A    between atoms: _381  and  _382
REMARK  152  A    between atoms: _386  and  _388
REMARK  153  A    between atoms: _388  and  _389
REMARK  154  A    between atoms: _388  and  _391
REMARK  155  A    between atoms: _391  and  _392
REMARK  156  A    between atoms: _392  and  _393
REMARK  157  A    between atoms: _398  and  _400
REMARK  158  A    between atoms: _400  and  _401
REMARK  159  A    between atoms: _400  and  _403
REMARK  160  A    between atoms: _403  and  _404
REMARK                            x       y       z     vdW  Elec       q    Type
REMARK                         _______ _______ _______ _____ _____    ______ ____
ROOT
ATOM      1  O   HOH     1      11.954  14.619  19.432  0.00  0.00    +0.000 OA
ENDROOT
TORSDOF 0
REMARK  Name = ../refined-set-2016/3ujd/3ujd_pocket.pdb
REMARK  160 active torsions:
REMARK  status: ('A' for Active; 'I' for Inactive)
REMARK    1  A    between atoms: _1  and  _3
REMARK    2  A    between atoms: _3  and  _4
REMARK    3  A    between atoms: _3  and  _6
REMARK    4  A    between atoms: _6  and  _7
REMARK    5  A    between atoms: _7  and  _8
REMARK    6  A    between atoms: _13  and  _15
REMARK    7  A    between atoms: _15  and  _16
REMARK    8  A    between atoms: _15  and  _18
REMARK    9  A    between atoms: _18  and  _19
REMARK   10  A    between atoms: _25  and  _27
REMARK   11  A    between atoms: _27  and  _28
REMARK   12  A    between atoms: _30  and  _32
REMARK   13  A    between atoms: _32  and  _33
REMARK   14  A    between atoms: _32  and  _35
REMARK   15  A    between atoms: _35  and  _36
REMARK   16  A    between atoms: _41  and  _42
REMARK   17  A    between atoms: _44  and  _46
REMARK   18  A    between atoms: _46  and  _47
REMARK   19  A    between atoms: _46  and  _49
REMARK   20  A    between atoms: _49  and  _50
REMARK   21  A    between atoms: _53  and  _55
REMARK   22  A    between atoms: _55  and  _56
REMARK   23  A    between atoms: _55  and  _58
REMARK   24  A    between atoms: _58  and  _59
REMARK   25  A    between atoms: _65  and  _67
REMARK   26  A    between atoms: _67  and  _68
REMARK   27  A    between atoms: _67  and  _70
REMARK   28  A    between atoms: _70  and  _71
REMARK   29  A    between atoms: _76  and  _77
REMARK   30  A    between atoms: _79  and  _81
REMARK   31  A    between atoms: _81  and  _82
REMARK   32  A    between atoms: _81  and  _84
REMARK   33  A    between atoms: _84  and  _85
REMARK   34  A    between atoms: _88  and  _90
REMARK   35  A    between atoms: _90  and  _91
REMARK   36  A    between atoms: _90  and  _93
REMARK   37  A    between atoms: _93  and  _94
REMARK   38  A    between atoms: _96  and  _98
REMARK   39  A    between atoms: _98  and  _99
REMARK   40  A    between atoms: _98  and  _101
REMARK   41  A    between atoms: _101  and  _102
REMARK   42  A    between atoms: _104  and  _106
REMARK   43  A    between atoms: _106  and  _107
REMARK   44  A    between atoms: _109  and  _111
REMARK   45  A    between atoms: _111  and  _112
REMARK   46  A    between atoms: _114  and  _116
REMARK   47  A    between atoms: _116  and  _117
REMARK   48  A    between atoms: _119  and  _121
REMARK   49  A    between atoms: _121  and  _122
REMARK   50  A    between atoms: _124  and  _126
REMARK   51  A    between atoms: _126  and  _127
REMARK   52  A    between atoms: _126  and  _129
REMARK   53  A    between atoms: _129  and  _130
REMARK   54  A    between atoms: _130  and  _131
REMARK   55  A    between atoms: _131  and  _132
REMARK   56  A    between atoms: _141  and  _143
REMARK   57  A    between atoms: _143  and  _144
REMARK   58  A    between atoms: _143  and  _146
REMARK   59  A    between atoms: _146  and  _147
REMARK   60  A    between atoms: _150  and  _152
REMARK   61  A    between atoms: _152  and  _153
REMARK   62  A    between atoms: _156  and  _158
REMARK   63  A    between atoms: _158  and  _159
REMARK   64  A    between atoms: _158  and  _161
REMARK   65  A    between atoms: _161  and  _162
REMARK   66  A    between atoms: _165  and  _167
REMARK   67  A    between atoms: _167  and  _168
REMARK   68  A    between atoms: _167  and  _170
REMARK   69  A    between atoms: _170  and  _171
REMARK   70  A    between atoms: _174  and  _176
REMARK   71  A    between atoms: _176  and  _177
REMARK   72  A    between atoms: _176  and  _179
REMARK   73  A    between atoms: _179  and  _180
REMARK   74  A    between atoms: _185  and  _187
REMARK   75  A    between atoms: _187  and  _188
REMARK   76  A    between atoms: _187  and  _190
REMARK   77  A    between atoms: _190  and  _191
REMARK   78  A    between atoms: _194  and  _196
REMARK   79  A    between atoms: _196  and  _197
REMARK   80  A    between atoms: _196  and  _199
REMARK   81  A    between atoms: _199  and  _200
REMARK   82  A    between atoms: _203  and  _205
REMARK   83  A    between atoms: _205  and  _206
REMARK   84  A    between atoms: _205  and  _208
REMARK   85  A    between atoms: _208  and  _209
REMARK   86  A    between atoms: _214  and  _215
REMARK   87  A    between atoms: _217  and  _219
REMARK   88  A    between atoms: _219  and  _220
REMARK   89  A    between atoms: _219  and  _222
REMARK   90  A    between atoms: _222  and  _223
REMARK   91  A    between atoms: _228  and  _229
REMARK   92  A    between atoms: _231  and  _233
REMARK   93  A    between atoms: _233  and  _234
REMARK   94  A    between atoms: _233  and  _236
REMARK   95  A    between atoms: _236  and  _237
REMARK   96  A    between atoms: _237  and  _238
REMARK   97  A    between atoms: _243  and  _245
REMARK   98  A    between atoms: _245  and  _246
REMARK   99  A    between atoms: _245  and  _248
REMARK  100  A    between atoms: _248  and  _249
REMARK  101  A    between atoms: _249  and  _250
REMARK  102  A    between atoms: _250  and  _251
REMARK  103  A    between atoms: _260  and  _262
REMARK  104  A    between atoms: _262  and  _263
REMARK  105  A    between atoms: _262  and  _265
REMARK  106  A    between atoms: _265  and  _266
REMARK  107  A    between atoms: _271  and  _272
REMARK  108  A    between atoms: _274  and  _276
REMARK  109  A    between atoms: _276  and  _277
REMARK  110  A    between atoms: _276  and  _279
REMARK  111  A    between atoms: _279  and  _280
REMARK  112  A    between atoms: _283  and  _285
REMARK  113  A    between atoms: _285  and  _286
REMARK  114  A    between atoms: _285  and  _288
REMARK  115  A    between atoms: _288  and  _289
REMARK  116  A    between atoms: _299  and  _301
REMARK  117  A    between atoms: _301  and  _302
REMARK  118  A    between atoms: _301  and  _304
REMARK  119  A    between atoms: _304  and  _305
REMARK  120  A    between atoms: _308  and  _310
REMARK  121  A    between atoms: _310  and  _311
REMARK  122  A    between atoms: _310  and  _313
REMARK  123  A    between atoms: _313  and  _314
REMARK  124  A    between atoms: _314  and  _315
REMARK  125  A    between atoms: _318  and  _320
REMARK  126  A    between atoms: _320  and  _321
REMARK  127  A    between atoms: _320  and  _323
REMARK  128  A    between atoms: _323  and  _324
REMARK  129  A    between atoms: _326  and  _328
REMARK  130  A    between atoms: _328  and  _329
REMARK  131  A    between atoms: _328  and  _331
REMARK  132  A    between atoms: _331  and  _332
REMARK  133  A    between atoms: _335  and  _337
REMARK  134  A    between atoms: _337  and  _338
REMARK  135  A    between atoms: _340  and  _342
REMARK  136  A    between atoms: _342  and  _343
REMARK  137  A    between atoms: _342  and  _345
REMARK  138  A    between atoms: _345  and  _346
REMARK  139  A    between atoms: _356  and  _358
REMARK  140  A    between atoms: _358  and  _359
REMARK  141  A    between atoms: _358  and  _361
REMARK  142  A    between atoms: _361  and  _362
REMARK  143  A    between atoms: _362  and  _363
REMARK  144  A    between atoms: _363  and  _364
REMARK  145  A    between atoms: _373  and  _375
REMARK  146  A    between atoms: _375  and  _376
REMARK  147  A    between atoms: _375  and  _378
REMARK  148  A    between atoms: _378  and  _379
REMARK  149  A    between atoms: _379  and  _380
REMARK  150  A    between atoms: _380  and  _381
REMARK  151  A    between atoms: _381  and  _382
REMARK  152  A    between atoms: _386  and  _388
REMARK  153  A    between atoms: _388  and  _389
REMARK  154  A    between atoms: _388  and  _391
REMARK  155  A    between atoms: _391  and  _392
REMARK  156  A    between atoms: _392  and  _393
REMARK  157  A    between atoms: _398  and  _400
REMARK  158  A    between atoms: _400  and  _401
REMARK  159  A    between atoms: _400  and  _403
REMARK  160  A    between atoms: _403  and  _404
REMARK                            x       y       z     vdW  Elec       q    Type
REMARK                         _______ _______ _______ _____ _____    ______ ____
ROOT
ATOM      1  O   HOH     1      11.831   7.493  21.696  0.00  0.00    +0.000 OA
ENDROOT
TORSDOF 0
REMARK  Name = ../refined-set-2016/3ujd/3ujd_pocket.pdb
REMARK  160 active torsions:
REMARK  status: ('A' for Active; 'I' for Inactive)
REMARK    1  A    between atoms: _1  and  _3
REMARK    2  A    between atoms: _3  and  _4
REMARK    3  A    between atoms: _3  and  _6
REMARK    4  A    between atoms: _6  and  _7
REMARK    5  A    between atoms: _7  and  _8
REMARK    6  A    between atoms: _13  and  _15
REMARK    7  A    between atoms: _15  and  _16
REMARK    8  A    between atoms: _15  and  _18
REMARK    9  A    between atoms: _18  and  _19
REMARK   10  A    between atoms: _25  and  _27
REMARK   11  A    between atoms: _27  and  _28
REMARK   12  A    between atoms: _30  and  _32
REMARK   13  A    between atoms: _32  and  _33
REMARK   14  A    between atoms: _32  and  _35
REMARK   15  A    between atoms: _35  and  _36
REMARK   16  A    between atoms: _41  and  _42
REMARK   17  A    between atoms: _44  and  _46
REMARK   18  A    between atoms: _46  and  _47
REMARK   19  A    between atoms: _46  and  _49
REMARK   20  A    between atoms: _49  and  _50
REMARK   21  A    between atoms: _53  and  _55
REMARK   22  A    between atoms: _55  and  _56
REMARK   23  A    between atoms: _55  and  _58
REMARK   24  A    between atoms: _58  and  _59
REMARK   25  A    between atoms: _65  and  _67
REMARK   26  A    between atoms: _67  and  _68
REMARK   27  A    between atoms: _67  and  _70
REMARK   28  A    between atoms: _70  and  _71
REMARK   29  A    between atoms: _76  and  _77
REMARK   30  A    between atoms: _79  and  _81
REMARK   31  A    between atoms: _81  and  _82
REMARK   32  A    between atoms: _81  and  _84
REMARK   33  A    between atoms: _84  and  _85
REMARK   34  A    between atoms: _88  and  _90
REMARK   35  A    between atoms: _90  and  _91
REMARK   36  A    between atoms: _90  and  _93
REMARK   37  A    between atoms: _93  and  _94
REMARK   38  A    between atoms: _96  and  _98
REMARK   39  A    between atoms: _98  and  _99
REMARK   40  A    between atoms: _98  and  _101
REMARK   41  A    between atoms: _101  and  _102
REMARK   42  A    between atoms: _104  and  _106
REMARK   43  A    between atoms: _106  and  _107
REMARK   44  A    between atoms: _109  and  _111
REMARK   45  A    between atoms: _111  and  _112
REMARK   46  A    between atoms: _114  and  _116
REMARK   47  A    between atoms: _116  and  _117
REMARK   48  A    between atoms: _119  and  _121
REMARK   49  A    between atoms: _121  and  _122
REMARK   50  A    between atoms: _124  and  _126
REMARK   51  A    between atoms: _126  and  _127
REMARK   52  A    between atoms: _126  and  _129
REMARK   53  A    between atoms: _129  and  _130
REMARK   54  A    between atoms: _130  and  _131
REMARK   55  A    between atoms: _131  and  _132
REMARK   56  A    between atoms: _141  and  _143
REMARK   57  A    between atoms: _143  and  _144
REMARK   58  A    between atoms: _143  and  _146
REMARK   59  A    between atoms: _146  and  _147
REMARK   60  A    between atoms: _150  and  _152
REMARK   61  A    between atoms: _152  and  _153
REMARK   62  A    between atoms: _156  and  _158
REMARK   63  A    between atoms: _158  and  _159
REMARK   64  A    between atoms: _158  and  _161
REMARK   65  A    between atoms: _161  and  _162
REMARK   66  A    between atoms: _165  and  _167
REMARK   67  A    between atoms: _167  and  _168
REMARK   68  A    between atoms: _167  and  _170
REMARK   69  A    between atoms: _170  and  _171
REMARK   70  A    between atoms: _174  and  _176
REMARK   71  A    between atoms: _176  and  _177
REMARK   72  A    between atoms: _176  and  _179
REMARK   73  A    between atoms: _179  and  _180
REMARK   74  A    between atoms: _185  and  _187
REMARK   75  A    between atoms: _187  and  _188
REMARK   76  A    between atoms: _187  and  _190
REMARK   77  A    between atoms: _190  and  _191
REMARK   78  A    between atoms: _194  and  _196
REMARK   79  A    between atoms: _196  and  _197
REMARK   80  A    between atoms: _196  and  _199
REMARK   81  A    between atoms: _199  and  _200
REMARK   82  A    between atoms: _203  and  _205
REMARK   83  A    between atoms: _205  and  _206
REMARK   84  A    between atoms: _205  and  _208
REMARK   85  A    between atoms: _208  and  _209
REMARK   86  A    between atoms: _214  and  _215
REMARK   87  A    between atoms: _217  and  _219
REMARK   88  A    between atoms: _219  and  _220
REMARK   89  A    between atoms: _219  and  _222
REMARK   90  A    between atoms: _222  and  _223
REMARK   91  A    between atoms: _228  and  _229
REMARK   92  A    between atoms: _231  and  _233
REMARK   93  A    between atoms: _233  and  _234
REMARK   94  A    between atoms: _233  and  _236
REMARK   95  A    between atoms: _236  and  _237
REMARK   96  A    between atoms: _237  and  _238
REMARK   97  A    between atoms: _243  and  _245
REMARK   98  A    between atoms: _245  and  _246
REMARK   99  A    between atoms: _245  and  _248
REMARK  100  A    between atoms: _248  and  _249
REMARK  101  A    between atoms: _249  and  _250
REMARK  102  A    between atoms: _250  and  _251
REMARK  103  A    between atoms: _260  and  _262
REMARK  104  A    between atoms: _262  and  _263
REMARK  105  A    between atoms: _262  and  _265
REMARK  106  A    between atoms: _265  and  _266
REMARK  107  A    between atoms: _271  and  _272
REMARK  108  A    between atoms: _274  and  _276
REMARK  109  A    between atoms: _276  and  _277
REMARK  110  A    between atoms: _276  and  _279
REMARK  111  A    between atoms: _279  and  _280
REMARK  112  A    between atoms: _283  and  _285
REMARK  113  A    between atoms: _285  and  _286
REMARK  114  A    between atoms: _285  and  _288
REMARK  115  A    between atoms: _288  and  _289
REMARK  116  A    between atoms: _299  and  _301
REMARK  117  A    between atoms: _301  and  _302
REMARK  118  A    between atoms: _301  and  _304
REMARK  119  A    between atoms: _304  and  _305
REMARK  120  A    between atoms: _308  and  _310
REMARK  121  A    between atoms: _310  and  _311
REMARK  122  A    between atoms: _310  and  _313
REMARK  123  A    between atoms: _313  and  _314
REMARK  124  A    between atoms: _314  and  _315
REMARK  125  A    between atoms: _318  and  _320
REMARK  126  A    between atoms: _320  and  _321
REMARK  127  A    between atoms: _320  and  _323
REMARK  128  A    between atoms: _323  and  _324
REMARK  129  A    between atoms: _326  and  _328
REMARK  130  A    between atoms: _328  and  _329
REMARK  131  A    between atoms: _328  and  _331
REMARK  132  A    between atoms: _331  and  _332
REMARK  133  A    between atoms: _335  and  _337
REMARK  134  A    between atoms: _337  and  _338
REMARK  135  A    between atoms: _340  and  _342
REMARK  136  A    between atoms: _342  and  _343
REMARK  137  A    between atoms: _342  and  _345
REMARK  138  A    between atoms: _345  and  _346
REMARK  139  A    between atoms: _356  and  _358
REMARK  140  A    between atoms: _358  and  _359
REMARK  141  A    between atoms: _358  and  _361
REMARK  142  A    between atoms: _361  and  _362
REMARK  143  A    between atoms: _362  and  _363
REMARK  144  A    between atoms: _363  and  _364
REMARK  145  A    between atoms: _373  and  _375
REMARK  146  A    between atoms: _375  and  _376
REMARK  147  A    between atoms: _375  and  _378
REMARK  148  A    between atoms: _378  and  _379
REMARK  149  A    between atoms: _379  and  _380
REMARK  150  A    between atoms: _380  and  _381
REMARK  151  A    between atoms: _381  and  _382
REMARK  152  A    between atoms: _386  and  _388
REMARK  153  A    between atoms: _388  and  _389
REMARK  154  A    between atoms: _388  and  _391
REMARK  155  A    between atoms: _391  and  _392
REMARK  156  A    between atoms: _392  and  _393
REMARK  157  A    between atoms: _398  and  _400
REMARK  158  A    between atoms: _400  and  _401
REMARK  159  A    between atoms: _400  and  _403
REMARK  160  A    between atoms: _403  and  _404
REMARK                            x       y       z     vdW  Elec       q    Type
REMARK                         _______ _______ _______ _____ _____    ______ ____
ROOT
ATOM      1  O   HOH     1      22.810   7.614  20.983  0.00  0.00    +0.000 OA
ENDROOT
TORSDOF 0
REMARK  Name = ../refined-set-2016/3ujd/3ujd_pocket.pdb
REMARK  160 active torsions:
REMARK  status: ('A' for Active; 'I' for Inactive)
REMARK    1  A    between atoms: _1  and  _3
REMARK    2  A    between atoms: _3  and  _4
REMARK    3  A    between atoms: _3  and  _6
REMARK    4  A    between atoms: _6  and  _7
REMARK    5  A    between atoms: _7  and  _8
REMARK    6  A    between atoms: _13  and  _15
REMARK    7  A    between atoms: _15  and  _16
REMARK    8  A    between atoms: _15  and  _18
REMARK    9  A    between atoms: _18  and  _19
REMARK   10  A    between atoms: _25  and  _27
REMARK   11  A    between atoms: _27  and  _28
REMARK   12  A    between atoms: _30  and  _32
REMARK   13  A    between atoms: _32  and  _33
REMARK   14  A    between atoms: _32  and  _35
REMARK   15  A    between atoms: _35  and  _36
REMARK   16  A    between atoms: _41  and  _42
REMARK   17  A    between atoms: _44  and  _46
REMARK   18  A    between atoms: _46  and  _47
REMARK   19  A    between atoms: _46  and  _49
REMARK   20  A    between atoms: _49  and  _50
REMARK   21  A    between atoms: _53  and  _55
REMARK   22  A    between atoms: _55  and  _56
REMARK   23  A    between atoms: _55  and  _58
REMARK   24  A    between atoms: _58  and  _59
REMARK   25  A    between atoms: _65  and  _67
REMARK   26  A    between atoms: _67  and  _68
REMARK   27  A    between atoms: _67  and  _70
REMARK   28  A    between atoms: _70  and  _71
REMARK   29  A    between atoms: _76  and  _77
REMARK   30  A    between atoms: _79  and  _81
REMARK   31  A    between atoms: _81  and  _82
REMARK   32  A    between atoms: _81  and  _84
REMARK   33  A    between atoms: _84  and  _85
REMARK   34  A    between atoms: _88  and  _90
REMARK   35  A    between atoms: _90  and  _91
REMARK   36  A    between atoms: _90  and  _93
REMARK   37  A    between atoms: _93  and  _94
REMARK   38  A    between atoms: _96  and  _98
REMARK   39  A    between atoms: _98  and  _99
REMARK   40  A    between atoms: _98  and  _101
REMARK   41  A    between atoms: _101  and  _102
REMARK   42  A    between atoms: _104  and  _106
REMARK   43  A    between atoms: _106  and  _107
REMARK   44  A    between atoms: _109  and  _111
REMARK   45  A    between atoms: _111  and  _112
REMARK   46  A    between atoms: _114  and  _116
REMARK   47  A    between atoms: _116  and  _117
REMARK   48  A    between atoms: _119  and  _121
REMARK   49  A    between atoms: _121  and  _122
REMARK   50  A    between atoms: _124  and  _126
REMARK   51  A    between atoms: _126  and  _127
REMARK   52  A    between atoms: _126  and  _129
REMARK   53  A    between atoms: _129  and  _130
REMARK   54  A    between atoms: _130  and  _131
REMARK   55  A    between atoms: _131  and  _132
REMARK   56  A    between atoms: _141  and  _143
REMARK   57  A    between atoms: _143  and  _144
REMARK   58  A    between atoms: _143  and  _146
REMARK   59  A    between atoms: _146  and  _147
REMARK   60  A    between atoms: _150  and  _152
REMARK   61  A    between atoms: _152  and  _153
REMARK   62  A    between atoms: _156  and  _158
REMARK   63  A    between atoms: _158  and  _159
REMARK   64  A    between atoms: _158  and  _161
REMARK   65  A    between atoms: _161  and  _162
REMARK   66  A    between atoms: _165  and  _167
REMARK   67  A    between atoms: _167  and  _168
REMARK   68  A    between atoms: _167  and  _170
REMARK   69  A    between atoms: _170  and  _171
REMARK   70  A    between atoms: _174  and  _176
REMARK   71  A    between atoms: _176  and  _177
REMARK   72  A    between atoms: _176  and  _179
REMARK   73  A    between atoms: _179  and  _180
REMARK   74  A    between atoms: _185  and  _187
REMARK   75  A    between atoms: _187  and  _188
REMARK   76  A    between atoms: _187  and  _190
REMARK   77  A    between atoms: _190  and  _191
REMARK   78  A    between atoms: _194  and  _196
REMARK   79  A    between atoms: _196  and  _197
REMARK   80  A    between atoms: _196  and  _199
REMARK   81  A    between atoms: _199  and  _200
REMARK   82  A    between atoms: _203  and  _205
REMARK   83  A    between atoms: _205  and  _206
REMARK   84  A    between atoms: _205  and  _208
REMARK   85  A    between atoms: _208  and  _209
REMARK   86  A    between atoms: _214  and  _215
REMARK   87  A    between atoms: _217  and  _219
REMARK   88  A    between atoms: _219  and  _220
REMARK   89  A    between atoms: _219  and  _222
REMARK   90  A    between atoms: _222  and  _223
REMARK   91  A    between atoms: _228  and  _229
REMARK   92  A    between atoms: _231  and  _233
REMARK   93  A    between atoms: _233  and  _234
REMARK   94  A    between atoms: _233  and  _236
REMARK   95  A    between atoms: _236  and  _237
REMARK   96  A    between atoms: _237  and  _238
REMARK   97  A    between atoms: _243  and  _245
REMARK   98  A    between atoms: _245  and  _246
REMARK   99  A    between atoms: _245  and  _248
REMARK  100  A    between atoms: _248  and  _249
REMARK  101  A    between atoms: _249  and  _250
REMARK  102  A    between atoms: _250  and  _251
REMARK  103  A    between atoms: _260  and  _262
REMARK  104  A    between atoms: _262  and  _263
REMARK  105  A    between atoms: _262  and  _265
REMARK  106  A    between atoms: _265  and  _266
REMARK  107  A    between atoms: _271  and  _272
REMARK  108  A    between atoms: _274  and  _276
REMARK  109  A    between atoms: _276  and  _277
REMARK  110  A    between atoms: _276  and  _279
REMARK  111  A    between atoms: _279  and  _280
REMARK  112  A    between atoms: _283  and  _285
REMARK  113  A    between atoms: _285  and  _286
REMARK  114  A    between atoms: _285  and  _288
REMARK  115  A    between atoms: _288  and  _289
REMARK  116  A    between atoms: _299  and  _301
REMARK  117  A    between atoms: _301  and  _302
REMARK  118  A    between atoms: _301  and  _304
REMARK  119  A    between atoms: _304  and  _305
REMARK  120  A    between atoms: _308  and  _310
REMARK  121  A    between atoms: _310  and  _311
REMARK  122  A    between atoms: _310  and  _313
REMARK  123  A    between atoms: _313  and  _314
REMARK  124  A    between atoms: _314  and  _315
REMARK  125  A    between atoms: _318  and  _320
REMARK  126  A    between atoms: _320  and  _321
REMARK  127  A    between atoms: _320  and  _323
REMARK  128  A    between atoms: _323  and  _324
REMARK  129  A    between atoms: _326  and  _328
REMARK  130  A    between atoms: _328  and  _329
REMARK  131  A    between atoms: _328  and  _331
REMARK  132  A    between atoms: _331  and  _332
REMARK  133  A    between atoms: _335  and  _337
REMARK  134  A    between atoms: _337  and  _338
REMARK  135  A    between atoms: _340  and  _342
REMARK  136  A    between atoms: _342  and  _343
REMARK  137  A    between atoms: _342  and  _345
REMARK  138  A    between atoms: _345  and  _346
REMARK  139  A    between atoms: _356  and  _358
REMARK  140  A    between atoms: _358  and  _359
REMARK  141  A    between atoms: _358  and  _361
REMARK  142  A    between atoms: _361  and  _362
REMARK  143  A    between atoms: _362  and  _363
REMARK  144  A    between atoms: _363  and  _364
REMARK  145  A    between atoms: _373  and  _375
REMARK  146  A    between atoms: _375  and  _376
REMARK  147  A    between atoms: _375  and  _378
REMARK  148  A    between atoms: _378  and  _379
REMARK  149  A    between atoms: _379  and  _380
REMARK  150  A    between atoms: _380  and  _381
REMARK  151  A    between atoms: _381  and  _382
REMARK  152  A    between atoms: _386  and  _388
REMARK  153  A    between atoms: _388  and  _389
REMARK  154  A    between atoms: _388  and  _391
REMARK  155  A    between atoms: _391  and  _392
REMARK  156  A    between atoms: _392  and  _393
REMARK  157  A    between atoms: _398  and  _400
REMARK  158  A    between atoms: _400  and  _401
REMARK  159  A    between atoms: _400  and  _403
REMARK  160  A    between atoms: _403  and  _404
REMARK                            x       y       z     vdW  Elec       q    Type
REMARK                         _______ _______ _______ _____ _____    ______ ____
ROOT
ATOM      1  O   HOH     1      10.234  16.763  18.566  0.00  0.00    +0.000 OA
ENDROOT
TORSDOF 0
REMARK  Name = ../refined-set-2016/3ujd/3ujd_pocket.pdb
REMARK  160 active torsions:
REMARK  status: ('A' for Active; 'I' for Inactive)
REMARK    1  A    between atoms: _1  and  _3
REMARK    2  A    between atoms: _3  and  _4
REMARK    3  A    between atoms: _3  and  _6
REMARK    4  A    between atoms: _6  and  _7
REMARK    5  A    between atoms: _7  and  _8
REMARK    6  A    between atoms: _13  and  _15
REMARK    7  A    between atoms: _15  and  _16
REMARK    8  A    between atoms: _15  and  _18
REMARK    9  A    between atoms: _18  and  _19
REMARK   10  A    between atoms: _25  and  _27
REMARK   11  A    between atoms: _27  and  _28
REMARK   12  A    between atoms: _30  and  _32
REMARK   13  A    between atoms: _32  and  _33
REMARK   14  A    between atoms: _32  and  _35
REMARK   15  A    between atoms: _35  and  _36
REMARK   16  A    between atoms: _41  and  _42
REMARK   17  A    between atoms: _44  and  _46
REMARK   18  A    between atoms: _46  and  _47
REMARK   19  A    between atoms: _46  and  _49
REMARK   20  A    between atoms: _49  and  _50
REMARK   21  A    between atoms: _53  and  _55
REMARK   22  A    between atoms: _55  and  _56
REMARK   23  A    between atoms: _55  and  _58
REMARK   24  A    between atoms: _58  and  _59
REMARK   25  A    between atoms: _65  and  _67
REMARK   26  A    between atoms: _67  and  _68
REMARK   27  A    between atoms: _67  and  _70
REMARK   28  A    between atoms: _70  and  _71
REMARK   29  A    between atoms: _76  and  _77
REMARK   30  A    between atoms: _79  and  _81
REMARK   31  A    between atoms: _81  and  _82
REMARK   32  A    between atoms: _81  and  _84
REMARK   33  A    between atoms: _84  and  _85
REMARK   34  A    between atoms: _88  and  _90
REMARK   35  A    between atoms: _90  and  _91
REMARK   36  A    between atoms: _90  and  _93
REMARK   37  A    between atoms: _93  and  _94
REMARK   38  A    between atoms: _96  and  _98
REMARK   39  A    between atoms: _98  and  _99
REMARK   40  A    between atoms: _98  and  _101
REMARK   41  A    between atoms: _101  and  _102
REMARK   42  A    between atoms: _104  and  _106
REMARK   43  A    between atoms: _106  and  _107
REMARK   44  A    between atoms: _109  and  _111
REMARK   45  A    between atoms: _111  and  _112
REMARK   46  A    between atoms: _114  and  _116
REMARK   47  A    between atoms: _116  and  _117
REMARK   48  A    between atoms: _119  and  _121
REMARK   49  A    between atoms: _121  and  _122
REMARK   50  A    between atoms: _124  and  _126
REMARK   51  A    between atoms: _126  and  _127
REMARK   52  A    between atoms: _126  and  _129
REMARK   53  A    between atoms: _129  and  _130
REMARK   54  A    between atoms: _130  and  _131
REMARK   55  A    between atoms: _131  and  _132
REMARK   56  A    between atoms: _141  and  _143
REMARK   57  A    between atoms: _143  and  _144
REMARK   58  A    between atoms: _143  and  _146
REMARK   59  A    between atoms: _146  and  _147
REMARK   60  A    between atoms: _150  and  _152
REMARK   61  A    between atoms: _152  and  _153
REMARK   62  A    between atoms: _156  and  _158
REMARK   63  A    between atoms: _158  and  _159
REMARK   64  A    between atoms: _158  and  _161
REMARK   65  A    between atoms: _161  and  _162
REMARK   66  A    between atoms: _165  and  _167
REMARK   67  A    between atoms: _167  and  _168
REMARK   68  A    between atoms: _167  and  _170
REMARK   69  A    between atoms: _170  and  _171
REMARK   70  A    between atoms: _174  and  _176
REMARK   71  A    between atoms: _176  and  _177
REMARK   72  A    between atoms: _176  and  _179
REMARK   73  A    between atoms: _179  and  _180
REMARK   74  A    between atoms: _185  and  _187
REMARK   75  A    between atoms: _187  and  _188
REMARK   76  A    between atoms: _187  and  _190
REMARK   77  A    between atoms: _190  and  _191
REMARK   78  A    between atoms: _194  and  _196
REMARK   79  A    between atoms: _196  and  _197
REMARK   80  A    between atoms: _196  and  _199
REMARK   81  A    between atoms: _199  and  _200
REMARK   82  A    between atoms: _203  and  _205
REMARK   83  A    between atoms: _205  and  _206
REMARK   84  A    between atoms: _205  and  _208
REMARK   85  A    between atoms: _208  and  _209
REMARK   86  A    between atoms: _214  and  _215
REMARK   87  A    between atoms: _217  and  _219
REMARK   88  A    between atoms: _219  and  _220
REMARK   89  A    between atoms: _219  and  _222
REMARK   90  A    between atoms: _222  and  _223
REMARK   91  A    between atoms: _228  and  _229
REMARK   92  A    between atoms: _231  and  _233
REMARK   93  A    between atoms: _233  and  _234
REMARK   94  A    between atoms: _233  and  _236
REMARK   95  A    between atoms: _236  and  _237
REMARK   96  A    between atoms: _237  and  _238
REMARK   97  A    between atoms: _243  and  _245
REMARK   98  A    between atoms: _245  and  _246
REMARK   99  A    between atoms: _245  and  _248
REMARK  100  A    between atoms: _248  and  _249
REMARK  101  A    between atoms: _249  and  _250
REMARK  102  A    between atoms: _250  and  _251
REMARK  103  A    between atoms: _260  and  _262
REMARK  104  A    between atoms: _262  and  _263
REMARK  105  A    between atoms: _262  and  _265
REMARK  106  A    between atoms: _265  and  _266
REMARK  107  A    between atoms: _271  and  _272
REMARK  108  A    between atoms: _274  and  _276
REMARK  109  A    between atoms: _276  and  _277
REMARK  110  A    between atoms: _276  and  _279
REMARK  111  A    between atoms: _279  and  _280
REMARK  112  A    between atoms: _283  and  _285
REMARK  113  A    between atoms: _285  and  _286
REMARK  114  A    between atoms: _285  and  _288
REMARK  115  A    between atoms: _288  and  _289
REMARK  116  A    between atoms: _299  and  _301
REMARK  117  A    between atoms: _301  and  _302
REMARK  118  A    between atoms: _301  and  _304
REMARK  119  A    between atoms: _304  and  _305
REMARK  120  A    between atoms: _308  and  _310
REMARK  121  A    between atoms: _310  and  _311
REMARK  122  A    between atoms: _310  and  _313
REMARK  123  A    between atoms: _313  and  _314
REMARK  124  A    between atoms: _314  and  _315
REMARK  125  A    between atoms: _318  and  _320
REMARK  126  A    between atoms: _320  and  _321
REMARK  127  A    between atoms: _320  and  _323
REMARK  128  A    between atoms: _323  and  _324
REMARK  129  A    between atoms: _326  and  _328
REMARK  130  A    between atoms: _328  and  _329
REMARK  131  A    between atoms: _328  and  _331
REMARK  132  A    between atoms: _331  and  _332
REMARK  133  A    between atoms: _335  and  _337
REMARK  134  A    between atoms: _337  and  _338
REMARK  135  A    between atoms: _340  and  _342
REMARK  136  A    between atoms: _342  and  _343
REMARK  137  A    between atoms: _342  and  _345
REMARK  138  A    between atoms: _345  and  _346
REMARK  139  A    between atoms: _356  and  _358
REMARK  140  A    between atoms: _358  and  _359
REMARK  141  A    between atoms: _358  and  _361
REMARK  142  A    between atoms: _361  and  _362
REMARK  143  A    between atoms: _362  and  _363
REMARK  144  A    between atoms: _363  and  _364
REMARK  145  A    between atoms: _373  and  _375
REMARK  146  A    between atoms: _375  and  _376
REMARK  147  A    between atoms: _375  and  _378
REMARK  148  A    between atoms: _378  and  _379
REMARK  149  A    between atoms: _379  and  _380
REMARK  150  A    between atoms: _380  and  _381
REMARK  151  A    between atoms: _381  and  _382
REMARK  152  A    between atoms: _386  and  _388
REMARK  153  A    between atoms: _388  and  _389
REMARK  154  A    between atoms: _388  and  _391
REMARK  155  A    between atoms: _391  and  _392
REMARK  156  A    between atoms: _392  and  _393
REMARK  157  A    between atoms: _398  and  _400
REMARK  158  A    between atoms: _400  and  _401
REMARK  159  A    between atoms: _400  and  _403
REMARK  160  A    between atoms: _403  and  _404
REMARK                            x       y       z     vdW  Elec       q    Type
REMARK                         _______ _______ _______ _____ _____    ______ ____
ROOT
ATOM      1  O   HOH     1      21.686  15.239  19.364  0.00  0.00    +0.000 OA
ENDROOT
TORSDOF 0
REMARK  Name = ../refined-set-2016/3ujd/3ujd_pocket.pdb
REMARK  160 active torsions:
REMARK  status: ('A' for Active; 'I' for Inactive)
REMARK    1  A    between atoms: _1  and  _3
REMARK    2  A    between atoms: _3  and  _4
REMARK    3  A    between atoms: _3  and  _6
REMARK    4  A    between atoms: _6  and  _7
REMARK    5  A    between atoms: _7  and  _8
REMARK    6  A    between atoms: _13  and  _15
REMARK    7  A    between atoms: _15  and  _16
REMARK    8  A    between atoms: _15  and  _18
REMARK    9  A    between atoms: _18  and  _19
REMARK   10  A    between atoms: _25  and  _27
REMARK   11  A    between atoms: _27  and  _28
REMARK   12  A    between atoms: _30  and  _32
REMARK   13  A    between atoms: _32  and  _33
REMARK   14  A    between atoms: _32  and  _35
REMARK   15  A    between atoms: _35  and  _36
REMARK   16  A    between atoms: _41  and  _42
REMARK   17  A    between atoms: _44  and  _46
REMARK   18  A    between atoms: _46  and  _47
REMARK   19  A    between atoms: _46  and  _49
REMARK   20  A    between atoms: _49  and  _50
REMARK   21  A    between atoms: _53  and  _55
REMARK   22  A    between atoms: _55  and  _56
REMARK   23  A    between atoms: _55  and  _58
REMARK   24  A    between atoms: _58  and  _59
REMARK   25  A    between atoms: _65  and  _67
REMARK   26  A    between atoms: _67  and  _68
REMARK   27  A    between atoms: _67  and  _70
REMARK   28  A    between atoms: _70  and  _71
REMARK   29  A    between atoms: _76  and  _77
REMARK   30  A    between atoms: _79  and  _81
REMARK   31  A    between atoms: _81  and  _82
REMARK   32  A    between atoms: _81  and  _84
REMARK   33  A    between atoms: _84  and  _85
REMARK   34  A    between atoms: _88  and  _90
REMARK   35  A    between atoms: _90  and  _91
REMARK   36  A    between atoms: _90  and  _93
REMARK   37  A    between atoms: _93  and  _94
REMARK   38  A    between atoms: _96  and  _98
REMARK   39  A    between atoms: _98  and  _99
REMARK   40  A    between atoms: _98  and  _101
REMARK   41  A    between atoms: _101  and  _102
REMARK   42  A    between atoms: _104  and  _106
REMARK   43  A    between atoms: _106  and  _107
REMARK   44  A    between atoms: _109  and  _111
REMARK   45  A    between atoms: _111  and  _112
REMARK   46  A    between atoms: _114  and  _116
REMARK   47  A    between atoms: _116  and  _117
REMARK   48  A    between atoms: _119  and  _121
REMARK   49  A    between atoms: _121  and  _122
REMARK   50  A    between atoms: _124  and  _126
REMARK   51  A    between atoms: _126  and  _127
REMARK   52  A    between atoms: _126  and  _129
REMARK   53  A    between atoms: _129  and  _130
REMARK   54  A    between atoms: _130  and  _131
REMARK   55  A    between atoms: _131  and  _132
REMARK   56  A    between atoms: _141  and  _143
REMARK   57  A    between atoms: _143  and  _144
REMARK   58  A    between atoms: _143  and  _146
REMARK   59  A    between atoms: _146  and  _147
REMARK   60  A    between atoms: _150  and  _152
REMARK   61  A    between atoms: _152  and  _153
REMARK   62  A    between atoms: _156  and  _158
REMARK   63  A    between atoms: _158  and  _159
REMARK   64  A    between atoms: _158  and  _161
REMARK   65  A    between atoms: _161  and  _162
REMARK   66  A    between atoms: _165  and  _167
REMARK   67  A    between atoms: _167  and  _168
REMARK   68  A    between atoms: _167  and  _170
REMARK   69  A    between atoms: _170  and  _171
REMARK   70  A    between atoms: _174  and  _176
REMARK   71  A    between atoms: _176  and  _177
REMARK   72  A    between atoms: _176  and  _179
REMARK   73  A    between atoms: _179  and  _180
REMARK   74  A    between atoms: _185  and  _187
REMARK   75  A    between atoms: _187  and  _188
REMARK   76  A    between atoms: _187  and  _190
REMARK   77  A    between atoms: _190  and  _191
REMARK   78  A    between atoms: _194  and  _196
REMARK   79  A    between atoms: _196  and  _197
REMARK   80  A    between atoms: _196  and  _199
REMARK   81  A    between atoms: _199  and  _200
REMARK   82  A    between atoms: _203  and  _205
REMARK   83  A    between atoms: _205  and  _206
REMARK   84  A    between atoms: _205  and  _208
REMARK   85  A    between atoms: _208  and  _209
REMARK   86  A    between atoms: _214  and  _215
REMARK   87  A    between atoms: _217  and  _219
REMARK   88  A    between atoms: _219  and  _220
REMARK   89  A    between atoms: _219  and  _222
REMARK   90  A    between atoms: _222  and  _223
REMARK   91  A    between atoms: _228  and  _229
REMARK   92  A    between atoms: _231  and  _233
REMARK   93  A    between atoms: _233  and  _234
REMARK   94  A    between atoms: _233  and  _236
REMARK   95  A    between atoms: _236  and  _237
REMARK   96  A    between atoms: _237  and  _238
REMARK   97  A    between atoms: _243  and  _245
REMARK   98  A    between atoms: _245  and  _246
REMARK   99  A    between atoms: _245  and  _248
REMARK  100  A    between atoms: _248  and  _249
REMARK  101  A    between atoms: _249  and  _250
REMARK  102  A    between atoms: _250  and  _251
REMARK  103  A    between atoms: _260  and  _262
REMARK  104  A    between atoms: _262  and  _263
REMARK  105  A    between atoms: _262  and  _265
REMARK  106  A    between atoms: _265  and  _266
REMARK  107  A    between atoms: _271  and  _272
REMARK  108  A    between atoms: _274  and  _276
REMARK  109  A    between atoms: _276  and  _277
REMARK  110  A    between atoms: _276  and  _279
REMARK  111  A    between atoms: _279  and  _280
REMARK  112  A    between atoms: _283  and  _285
REMARK  113  A    between atoms: _285  and  _286
REMARK  114  A    between atoms: _285  and  _288
REMARK  115  A    between atoms: _288  and  _289
REMARK  116  A    between atoms: _299  and  _301
REMARK  117  A    between atoms: _301  and  _302
REMARK  118  A    between atoms: _301  and  _304
REMARK  119  A    between atoms: _304  and  _305
REMARK  120  A    between atoms: _308  and  _310
REMARK  121  A    between atoms: _310  and  _311
REMARK  122  A    between atoms: _310  and  _313
REMARK  123  A    between atoms: _313  and  _314
REMARK  124  A    between atoms: _314  and  _315
REMARK  125  A    between atoms: _318  and  _320
REMARK  126  A    between atoms: _320  and  _321
REMARK  127  A    between atoms: _320  and  _323
REMARK  128  A    between atoms: _323  and  _324
REMARK  129  A    between atoms: _326  and  _328
REMARK  130  A    between atoms: _328  and  _329
REMARK  131  A    between atoms: _328  and  _331
REMARK  132  A    between atoms: _331  and  _332
REMARK  133  A    between atoms: _335  and  _337
REMARK  134  A    between atoms: _337  and  _338
REMARK  135  A    between atoms: _340  and  _342
REMARK  136  A    between atoms: _342  and  _343
REMARK  137  A    between atoms: _342  and  _345
REMARK  138  A    between atoms: _345  and  _346
REMARK  139  A    between atoms: _356  and  _358
REMARK  140  A    between atoms: _358  and  _359
REMARK  141  A    between atoms: _358  and  _361
REMARK  142  A    between atoms: _361  and  _362
REMARK  143  A    between atoms: _362  and  _363
REMARK  144  A    between atoms: _363  and  _364
REMARK  145  A    between atoms: _373  and  _375
REMARK  146  A    between atoms: _375  and  _376
REMARK  147  A    between atoms: _375  and  _378
REMARK  148  A    between atoms: _378  and  _379
REMARK  149  A    between atoms: _379  and  _380
REMARK  150  A    between atoms: _380  and  _381
REMARK  151  A    between atoms: _381  and  _382
REMARK  152  A    between atoms: _386  and  _388
REMARK  153  A    between atoms: _388  and  _389
REMARK  154  A    between atoms: _388  and  _391
REMARK  155  A    between atoms: _391  and  _392
REMARK  156  A    between atoms: _392  and  _393
REMARK  157  A    between atoms: _398  and  _400
REMARK  158  A    between atoms: _400  and  _401
REMARK  159  A    between atoms: _400  and  _403
REMARK  160  A    between atoms: _403  and  _404
REMARK                            x       y       z     vdW  Elec       q    Type
REMARK                         _______ _______ _______ _____ _____    ______ ____
ROOT
ATOM      1  O   HOH     1      12.742   8.515  19.205  0.00  0.00    +0.000 OA
ENDROOT
TORSDOF 0
REMARK  Name = ../refined-set-2016/3ujd/3ujd_pocket.pdb
REMARK  160 active torsions:
REMARK  status: ('A' for Active; 'I' for Inactive)
REMARK    1  A    between atoms: _1  and  _3
REMARK    2  A    between atoms: _3  and  _4
REMARK    3  A    between atoms: _3  and  _6
REMARK    4  A    between atoms: _6  and  _7
REMARK    5  A    between atoms: _7  and  _8
REMARK    6  A    between atoms: _13  and  _15
REMARK    7  A    between atoms: _15  and  _16
REMARK    8  A    between atoms: _15  and  _18
REMARK    9  A    between atoms: _18  and  _19
REMARK   10  A    between atoms: _25  and  _27
REMARK   11  A    between atoms: _27  and  _28
REMARK   12  A    between atoms: _30  and  _32
REMARK   13  A    between atoms: _32  and  _33
REMARK   14  A    between atoms: _32  and  _35
REMARK   15  A    between atoms: _35  and  _36
REMARK   16  A    between atoms: _41  and  _42
REMARK   17  A    between atoms: _44  and  _46
REMARK   18  A    between atoms: _46  and  _47
REMARK   19  A    between atoms: _46  and  _49
REMARK   20  A    between atoms: _49  and  _50
REMARK   21  A    between atoms: _53  and  _55
REMARK   22  A    between atoms: _55  and  _56
REMARK   23  A    between atoms: _55  and  _58
REMARK   24  A    between atoms: _58  and  _59
REMARK   25  A    between atoms: _65  and  _67
REMARK   26  A    between atoms: _67  and  _68
REMARK   27  A    between atoms: _67  and  _70
REMARK   28  A    between atoms: _70  and  _71
REMARK   29  A    between atoms: _76  and  _77
REMARK   30  A    between atoms: _79  and  _81
REMARK   31  A    between atoms: _81  and  _82
REMARK   32  A    between atoms: _81  and  _84
REMARK   33  A    between atoms: _84  and  _85
REMARK   34  A    between atoms: _88  and  _90
REMARK   35  A    between atoms: _90  and  _91
REMARK   36  A    between atoms: _90  and  _93
REMARK   37  A    between atoms: _93  and  _94
REMARK   38  A    between atoms: _96  and  _98
REMARK   39  A    between atoms: _98  and  _99
REMARK   40  A    between atoms: _98  and  _101
REMARK   41  A    between atoms: _101  and  _102
REMARK   42  A    between atoms: _104  and  _106
REMARK   43  A    between atoms: _106  and  _107
REMARK   44  A    between atoms: _109  and  _111
REMARK   45  A    between atoms: _111  and  _112
REMARK   46  A    between atoms: _114  and  _116
REMARK   47  A    between atoms: _116  and  _117
REMARK   48  A    between atoms: _119  and  _121
REMARK   49  A    between atoms: _121  and  _122
REMARK   50  A    between atoms: _124  and  _126
REMARK   51  A    between atoms: _126  and  _127
REMARK   52  A    between atoms: _126  and  _129
REMARK   53  A    between atoms: _129  and  _130
REMARK   54  A    between atoms: _130  and  _131
REMARK   55  A    between atoms: _131  and  _132
REMARK   56  A    between atoms: _141  and  _143
REMARK   57  A    between atoms: _143  and  _144
REMARK   58  A    between atoms: _143  and  _146
REMARK   59  A    between atoms: _146  and  _147
REMARK   60  A    between atoms: _150  and  _152
REMARK   61  A    between atoms: _152  and  _153
REMARK   62  A    between atoms: _156  and  _158
REMARK   63  A    between atoms: _158  and  _159
REMARK   64  A    between atoms: _158  and  _161
REMARK   65  A    between atoms: _161  and  _162
REMARK   66  A    between atoms: _165  and  _167
REMARK   67  A    between atoms: _167  and  _168
REMARK   68  A    between atoms: _167  and  _170
REMARK   69  A    between atoms: _170  and  _171
REMARK   70  A    between atoms: _174  and  _176
REMARK   71  A    between atoms: _176  and  _177
REMARK   72  A    between atoms: _176  and  _179
REMARK   73  A    between atoms: _179  and  _180
REMARK   74  A    between atoms: _185  and  _187
REMARK   75  A    between atoms: _187  and  _188
REMARK   76  A    between atoms: _187  and  _190
REMARK   77  A    between atoms: _190  and  _191
REMARK   78  A    between atoms: _194  and  _196
REMARK   79  A    between atoms: _196  and  _197
REMARK   80  A    between atoms: _196  and  _199
REMARK   81  A    between atoms: _199  and  _200
REMARK   82  A    between atoms: _203  and  _205
REMARK   83  A    between atoms: _205  and  _206
REMARK   84  A    between atoms: _205  and  _208
REMARK   85  A    between atoms: _208  and  _209
REMARK   86  A    between atoms: _214  and  _215
REMARK   87  A    between atoms: _217  and  _219
REMARK   88  A    between atoms: _219  and  _220
REMARK   89  A    between atoms: _219  and  _222
REMARK   90  A    between atoms: _222  and  _223
REMARK   91  A    between atoms: _228  and  _229
REMARK   92  A    between atoms: _231  and  _233
REMARK   93  A    between atoms: _233  and  _234
REMARK   94  A    between atoms: _233  and  _236
REMARK   95  A    between atoms: _236  and  _237
REMARK   96  A    between atoms: _237  and  _238
REMARK   97  A    between atoms: _243  and  _245
REMARK   98  A    between atoms: _245  and  _246
REMARK   99  A    between atoms: _245  and  _248
REMARK  100  A    between atoms: _248  and  _249
REMARK  101  A    between atoms: _249  and  _250
REMARK  102  A    between atoms: _250  and  _251
REMARK  103  A    between atoms: _260  and  _262
REMARK  104  A    between atoms: _262  and  _263
REMARK  105  A    between atoms: _262  and  _265
REMARK  106  A    between atoms: _265  and  _266
REMARK  107  A    between atoms: _271  and  _272
REMARK  108  A    between atoms: _274  and  _276
REMARK  109  A    between atoms: _276  and  _277
REMARK  110  A    between atoms: _276  and  _279
REMARK  111  A    between atoms: _279  and  _280
REMARK  112  A    between atoms: _283  and  _285
REMARK  113  A    between atoms: _285  and  _286
REMARK  114  A    between atoms: _285  and  _288
REMARK  115  A    between atoms: _288  and  _289
REMARK  116  A    between atoms: _299  and  _301
REMARK  117  A    between atoms: _301  and  _302
REMARK  118  A    between atoms: _301  and  _304
REMARK  119  A    between atoms: _304  and  _305
REMARK  120  A    between atoms: _308  and  _310
REMARK  121  A    between atoms: _310  and  _311
REMARK  122  A    between atoms: _310  and  _313
REMARK  123  A    between atoms: _313  and  _314
REMARK  124  A    between atoms: _314  and  _315
REMARK  125  A    between atoms: _318  and  _320
REMARK  126  A    between atoms: _320  and  _321
REMARK  127  A    between atoms: _320  and  _323
REMARK  128  A    between atoms: _323  and  _324
REMARK  129  A    between atoms: _326  and  _328
REMARK  130  A    between atoms: _328  and  _329
REMARK  131  A    between atoms: _328  and  _331
REMARK  132  A    between atoms: _331  and  _332
REMARK  133  A    between atoms: _335  and  _337
REMARK  134  A    between atoms: _337  and  _338
REMARK  135  A    between atoms: _340  and  _342
REMARK  136  A    between atoms: _342  and  _343
REMARK  137  A    between atoms: _342  and  _345
REMARK  138  A    between atoms: _345  and  _346
REMARK  139  A    between atoms: _356  and  _358
REMARK  140  A    between atoms: _358  and  _359
REMARK  141  A    between atoms: _358  and  _361
REMARK  142  A    between atoms: _361  and  _362
REMARK  143  A    between atoms: _362  and  _363
REMARK  144  A    between atoms: _363  and  _364
REMARK  145  A    between atoms: _373  and  _375
REMARK  146  A    between atoms: _375  and  _376
REMARK  147  A    between atoms: _375  and  _378
REMARK  148  A    between atoms: _378  and  _379
REMARK  149  A    between atoms: _379  and  _380
REMARK  150  A    between atoms: _380  and  _381
REMARK  151  A    between atoms: _381  and  _382
REMARK  152  A    between atoms: _386  and  _388
REMARK  153  A    between atoms: _388  and  _389
REMARK  154  A    between atoms: _388  and  _391
REMARK  155  A    between atoms: _391  and  _392
REMARK  156  A    between atoms: _392  and  _393
REMARK  157  A    between atoms: _398  and  _400
REMARK  158  A    between atoms: _400  and  _401
REMARK  159  A    between atoms: _400  and  _403
REMARK  160  A    between atoms: _403  and  _404
REMARK                            x       y       z     vdW  Elec       q    Type
REMARK                         _______ _______ _______ _____ _____    ______ ____
ROOT
ATOM      1  O   HOH     1      18.797   6.701  14.567  0.00  0.00    +0.000 OA
ENDROOT
TORSDOF 0
REMARK  Name = ../refined-set-2016/3ujd/3ujd_pocket.pdb
REMARK  160 active torsions:
REMARK  status: ('A' for Active; 'I' for Inactive)
REMARK    1  A    between atoms: _1  and  _3
REMARK    2  A    between atoms: _3  and  _4
REMARK    3  A    between atoms: _3  and  _6
REMARK    4  A    between atoms: _6  and  _7
REMARK    5  A    between atoms: _7  and  _8
REMARK    6  A    between atoms: _13  and  _15
REMARK    7  A    between atoms: _15  and  _16
REMARK    8  A    between atoms: _15  and  _18
REMARK    9  A    between atoms: _18  and  _19
REMARK   10  A    between atoms: _25  and  _27
REMARK   11  A    between atoms: _27  and  _28
REMARK   12  A    between atoms: _30  and  _32
REMARK   13  A    between atoms: _32  and  _33
REMARK   14  A    between atoms: _32  and  _35
REMARK   15  A    between atoms: _35  and  _36
REMARK   16  A    between atoms: _41  and  _42
REMARK   17  A    between atoms: _44  and  _46
REMARK   18  A    between atoms: _46  and  _47
REMARK   19  A    between atoms: _46  and  _49
REMARK   20  A    between atoms: _49  and  _50
REMARK   21  A    between atoms: _53  and  _55
REMARK   22  A    between atoms: _55  and  _56
REMARK   23  A    between atoms: _55  and  _58
REMARK   24  A    between atoms: _58  and  _59
REMARK   25  A    between atoms: _65  and  _67
REMARK   26  A    between atoms: _67  and  _68
REMARK   27  A    between atoms: _67  and  _70
REMARK   28  A    between atoms: _70  and  _71
REMARK   29  A    between atoms: _76  and  _77
REMARK   30  A    between atoms: _79  and  _81
REMARK   31  A    between atoms: _81  and  _82
REMARK   32  A    between atoms: _81  and  _84
REMARK   33  A    between atoms: _84  and  _85
REMARK   34  A    between atoms: _88  and  _90
REMARK   35  A    between atoms: _90  and  _91
REMARK   36  A    between atoms: _90  and  _93
REMARK   37  A    between atoms: _93  and  _94
REMARK   38  A    between atoms: _96  and  _98
REMARK   39  A    between atoms: _98  and  _99
REMARK   40  A    between atoms: _98  and  _101
REMARK   41  A    between atoms: _101  and  _102
REMARK   42  A    between atoms: _104  and  _106
REMARK   43  A    between atoms: _106  and  _107
REMARK   44  A    between atoms: _109  and  _111
REMARK   45  A    between atoms: _111  and  _112
REMARK   46  A    between atoms: _114  and  _116
REMARK   47  A    between atoms: _116  and  _117
REMARK   48  A    between atoms: _119  and  _121
REMARK   49  A    between atoms: _121  and  _122
REMARK   50  A    between atoms: _124  and  _126
REMARK   51  A    between atoms: _126  and  _127
REMARK   52  A    between atoms: _126  and  _129
REMARK   53  A    between atoms: _129  and  _130
REMARK   54  A    between atoms: _130  and  _131
REMARK   55  A    between atoms: _131  and  _132
REMARK   56  A    between atoms: _141  and  _143
REMARK   57  A    between atoms: _143  and  _144
REMARK   58  A    between atoms: _143  and  _146
REMARK   59  A    between atoms: _146  and  _147
REMARK   60  A    between atoms: _150  and  _152
REMARK   61  A    between atoms: _152  and  _153
REMARK   62  A    between atoms: _156  and  _158
REMARK   63  A    between atoms: _158  and  _159
REMARK   64  A    between atoms: _158  and  _161
REMARK   65  A    between atoms: _161  and  _162
REMARK   66  A    between atoms: _165  and  _167
REMARK   67  A    between atoms: _167  and  _168
REMARK   68  A    between atoms: _167  and  _170
REMARK   69  A    between atoms: _170  and  _171
REMARK   70  A    between atoms: _174  and  _176
REMARK   71  A    between atoms: _176  and  _177
REMARK   72  A    between atoms: _176  and  _179
REMARK   73  A    between atoms: _179  and  _180
REMARK   74  A    between atoms: _185  and  _187
REMARK   75  A    between atoms: _187  and  _188
REMARK   76  A    between atoms: _187  and  _190
REMARK   77  A    between atoms: _190  and  _191
REMARK   78  A    between atoms: _194  and  _196
REMARK   79  A    between atoms: _196  and  _197
REMARK   80  A    between atoms: _196  and  _199
REMARK   81  A    between atoms: _199  and  _200
REMARK   82  A    between atoms: _203  and  _205
REMARK   83  A    between atoms: _205  and  _206
REMARK   84  A    between atoms: _205  and  _208
REMARK   85  A    between atoms: _208  and  _209
REMARK   86  A    between atoms: _214  and  _215
REMARK   87  A    between atoms: _217  and  _219
REMARK   88  A    between atoms: _219  and  _220
REMARK   89  A    between atoms: _219  and  _222
REMARK   90  A    between atoms: _222  and  _223
REMARK   91  A    between atoms: _228  and  _229
REMARK   92  A    between atoms: _231  and  _233
REMARK   93  A    between atoms: _233  and  _234
REMARK   94  A    between atoms: _233  and  _236
REMARK   95  A    between atoms: _236  and  _237
REMARK   96  A    between atoms: _237  and  _238
REMARK   97  A    between atoms: _243  and  _245
REMARK   98  A    between atoms: _245  and  _246
REMARK   99  A    between atoms: _245  and  _248
REMARK  100  A    between atoms: _248  and  _249
REMARK  101  A    between atoms: _249  and  _250
REMARK  102  A    between atoms: _250  and  _251
REMARK  103  A    between atoms: _260  and  _262
REMARK  104  A    between atoms: _262  and  _263
REMARK  105  A    between atoms: _262  and  _265
REMARK  106  A    between atoms: _265  and  _266
REMARK  107  A    between atoms: _271  and  _272
REMARK  108  A    between atoms: _274  and  _276
REMARK  109  A    between atoms: _276  and  _277
REMARK  110  A    between atoms: _276  and  _279
REMARK  111  A    between atoms: _279  and  _280
REMARK  112  A    between atoms: _283  and  _285
REMARK  113  A    between atoms: _285  and  _286
REMARK  114  A    between atoms: _285  and  _288
REMARK  115  A    between atoms: _288  and  _289
REMARK  116  A    between atoms: _299  and  _301
REMARK  117  A    between atoms: _301  and  _302
REMARK  118  A    between atoms: _301  and  _304
REMARK  119  A    between atoms: _304  and  _305
REMARK  120  A    between atoms: _308  and  _310
REMARK  121  A    between atoms: _310  and  _311
REMARK  122  A    between atoms: _310  and  _313
REMARK  123  A    between atoms: _313  and  _314
REMARK  124  A    between atoms: _314  and  _315
REMARK  125  A    between atoms: _318  and  _320
REMARK  126  A    between atoms: _320  and  _321
REMARK  127  A    between atoms: _320  and  _323
REMARK  128  A    between atoms: _323  and  _324
REMARK  129  A    between atoms: _326  and  _328
REMARK  130  A    between atoms: _328  and  _329
REMARK  131  A    between atoms: _328  and  _331
REMARK  132  A    between atoms: _331  and  _332
REMARK  133  A    between atoms: _335  and  _337
REMARK  134  A    between atoms: _337  and  _338
REMARK  135  A    between atoms: _340  and  _342
REMARK  136  A    between atoms: _342  and  _343
REMARK  137  A    between atoms: _342  and  _345
REMARK  138  A    between atoms: _345  and  _346
REMARK  139  A    between atoms: _356  and  _358
REMARK  140  A    between atoms: _358  and  _359
REMARK  141  A    between atoms: _358  and  _361
REMARK  142  A    between atoms: _361  and  _362
REMARK  143  A    between atoms: _362  and  _363
REMARK  144  A    between atoms: _363  and  _364
REMARK  145  A    between atoms: _373  and  _375
REMARK  146  A    between atoms: _375  and  _376
REMARK  147  A    between atoms: _375  and  _378
REMARK  148  A    between atoms: _378  and  _379
REMARK  149  A    between atoms: _379  and  _380
REMARK  150  A    between atoms: _380  and  _381
REMARK  151  A    between atoms: _381  and  _382
REMARK  152  A    between atoms: _386  and  _388
REMARK  153  A    between atoms: _388  and  _389
REMARK  154  A    between atoms: _388  and  _391
REMARK  155  A    between atoms: _391  and  _392
REMARK  156  A    between atoms: _392  and  _393
REMARK  157  A    between atoms: _398  and  _400
REMARK  158  A    between atoms: _400  and  _401
REMARK  159  A    between atoms: _400  and  _403
REMARK  160  A    between atoms: _403  and  _404
REMARK                            x       y       z     vdW  Elec       q    Type
REMARK                         _______ _______ _______ _____ _____    ______ ____
ROOT
ATOM      1  O   HOH     1      16.688   7.611  13.024  0.00  0.00    +0.000 OA
ENDROOT
TORSDOF 0
REMARK  Name = ../refined-set-2016/3ujd/3ujd_pocket.pdb
REMARK  160 active torsions:
REMARK  status: ('A' for Active; 'I' for Inactive)
REMARK    1  A    between atoms: _1  and  _3
REMARK    2  A    between atoms: _3  and  _4
REMARK    3  A    between atoms: _3  and  _6
REMARK    4  A    between atoms: _6  and  _7
REMARK    5  A    between atoms: _7  and  _8
REMARK    6  A    between atoms: _13  and  _15
REMARK    7  A    between atoms: _15  and  _16
REMARK    8  A    between atoms: _15  and  _18
REMARK    9  A    between atoms: _18  and  _19
REMARK   10  A    between atoms: _25  and  _27
REMARK   11  A    between atoms: _27  and  _28
REMARK   12  A    between atoms: _30  and  _32
REMARK   13  A    between atoms: _32  and  _33
REMARK   14  A    between atoms: _32  and  _35
REMARK   15  A    between atoms: _35  and  _36
REMARK   16  A    between atoms: _41  and  _42
REMARK   17  A    between atoms: _44  and  _46
REMARK   18  A    between atoms: _46  and  _47
REMARK   19  A    between atoms: _46  and  _49
REMARK   20  A    between atoms: _49  and  _50
REMARK   21  A    between atoms: _53  and  _55
REMARK   22  A    between atoms: _55  and  _56
REMARK   23  A    between atoms: _55  and  _58
REMARK   24  A    between atoms: _58  and  _59
REMARK   25  A    between atoms: _65  and  _67
REMARK   26  A    between atoms: _67  and  _68
REMARK   27  A    between atoms: _67  and  _70
REMARK   28  A    between atoms: _70  and  _71
REMARK   29  A    between atoms: _76  and  _77
REMARK   30  A    between atoms: _79  and  _81
REMARK   31  A    between atoms: _81  and  _82
REMARK   32  A    between atoms: _81  and  _84
REMARK   33  A    between atoms: _84  and  _85
REMARK   34  A    between atoms: _88  and  _90
REMARK   35  A    between atoms: _90  and  _91
REMARK   36  A    between atoms: _90  and  _93
REMARK   37  A    between atoms: _93  and  _94
REMARK   38  A    between atoms: _96  and  _98
REMARK   39  A    between atoms: _98  and  _99
REMARK   40  A    between atoms: _98  and  _101
REMARK   41  A    between atoms: _101  and  _102
REMARK   42  A    between atoms: _104  and  _106
REMARK   43  A    between atoms: _106  and  _107
REMARK   44  A    between atoms: _109  and  _111
REMARK   45  A    between atoms: _111  and  _112
REMARK   46  A    between atoms: _114  and  _116
REMARK   47  A    between atoms: _116  and  _117
REMARK   48  A    between atoms: _119  and  _121
REMARK   49  A    between atoms: _121  and  _122
REMARK   50  A    between atoms: _124  and  _126
REMARK   51  A    between atoms: _126  and  _127
REMARK   52  A    between atoms: _126  and  _129
REMARK   53  A    between atoms: _129  and  _130
REMARK   54  A    between atoms: _130  and  _131
REMARK   55  A    between atoms: _131  and  _132
REMARK   56  A    between atoms: _141  and  _143
REMARK   57  A    between atoms: _143  and  _144
REMARK   58  A    between atoms: _143  and  _146
REMARK   59  A    between atoms: _146  and  _147
REMARK   60  A    between atoms: _150  and  _152
REMARK   61  A    between atoms: _152  and  _153
REMARK   62  A    between atoms: _156  and  _158
REMARK   63  A    between atoms: _158  and  _159
REMARK   64  A    between atoms: _158  and  _161
REMARK   65  A    between atoms: _161  and  _162
REMARK   66  A    between atoms: _165  and  _167
REMARK   67  A    between atoms: _167  and  _168
REMARK   68  A    between atoms: _167  and  _170
REMARK   69  A    between atoms: _170  and  _171
REMARK   70  A    between atoms: _174  and  _176
REMARK   71  A    between atoms: _176  and  _177
REMARK   72  A    between atoms: _176  and  _179
REMARK   73  A    between atoms: _179  and  _180
REMARK   74  A    between atoms: _185  and  _187
REMARK   75  A    between atoms: _187  and  _188
REMARK   76  A    between atoms: _187  and  _190
REMARK   77  A    between atoms: _190  and  _191
REMARK   78  A    between atoms: _194  and  _196
REMARK   79  A    between atoms: _196  and  _197
REMARK   80  A    between atoms: _196  and  _199
REMARK   81  A    between atoms: _199  and  _200
REMARK   82  A    between atoms: _203  and  _205
REMARK   83  A    between atoms: _205  and  _206
REMARK   84  A    between atoms: _205  and  _208
REMARK   85  A    between atoms: _208  and  _209
REMARK   86  A    between atoms: _214  and  _215
REMARK   87  A    between atoms: _217  and  _219
REMARK   88  A    between atoms: _219  and  _220
REMARK   89  A    between atoms: _219  and  _222
REMARK   90  A    between atoms: _222  and  _223
REMARK   91  A    between atoms: _228  and  _229
REMARK   92  A    between atoms: _231  and  _233
REMARK   93  A    between atoms: _233  and  _234
REMARK   94  A    between atoms: _233  and  _236
REMARK   95  A    between atoms: _236  and  _237
REMARK   96  A    between atoms: _237  and  _238
REMARK   97  A    between atoms: _243  and  _245
REMARK   98  A    between atoms: _245  and  _246
REMARK   99  A    between atoms: _245  and  _248
REMARK  100  A    between atoms: _248  and  _249
REMARK  101  A    between atoms: _249  and  _250
REMARK  102  A    between atoms: _250  and  _251
REMARK  103  A    between atoms: _260  and  _262
REMARK  104  A    between atoms: _262  and  _263
REMARK  105  A    between atoms: _262  and  _265
REMARK  106  A    between atoms: _265  and  _266
REMARK  107  A    between atoms: _271  and  _272
REMARK  108  A    between atoms: _274  and  _276
REMARK  109  A    between atoms: _276  and  _277
REMARK  110  A    between atoms: _276  and  _279
REMARK  111  A    between atoms: _279  and  _280
REMARK  112  A    between atoms: _283  and  _285
REMARK  113  A    between atoms: _285  and  _286
REMARK  114  A    between atoms: _285  and  _288
REMARK  115  A    between atoms: _288  and  _289
REMARK  116  A    between atoms: _299  and  _301
REMARK  117  A    between atoms: _301  and  _302
REMARK  118  A    between atoms: _301  and  _304
REMARK  119  A    between atoms: _304  and  _305
REMARK  120  A    between atoms: _308  and  _310
REMARK  121  A    between atoms: _310  and  _311
REMARK  122  A    between atoms: _310  and  _313
REMARK  123  A    between atoms: _313  and  _314
REMARK  124  A    between atoms: _314  and  _315
REMARK  125  A    between atoms: _318  and  _320
REMARK  126  A    between atoms: _320  and  _321
REMARK  127  A    between atoms: _320  and  _323
REMARK  128  A    between atoms: _323  and  _324
REMARK  129  A    between atoms: _326  and  _328
REMARK  130  A    between atoms: _328  and  _329
REMARK  131  A    between atoms: _328  and  _331
REMARK  132  A    between atoms: _331  and  _332
REMARK  133  A    between atoms: _335  and  _337
REMARK  134  A    between atoms: _337  and  _338
REMARK  135  A    between atoms: _340  and  _342
REMARK  136  A    between atoms: _342  and  _343
REMARK  137  A    between atoms: _342  and  _345
REMARK  138  A    between atoms: _345  and  _346
REMARK  139  A    between atoms: _356  and  _358
REMARK  140  A    between atoms: _358  and  _359
REMARK  141  A    between atoms: _358  and  _361
REMARK  142  A    between atoms: _361  and  _362
REMARK  143  A    between atoms: _362  and  _363
REMARK  144  A    between atoms: _363  and  _364
REMARK  145  A    between atoms: _373  and  _375
REMARK  146  A    between atoms: _375  and  _376
REMARK  147  A    between atoms: _375  and  _378
REMARK  148  A    between atoms: _378  and  _379
REMARK  149  A    between atoms: _379  and  _380
REMARK  150  A    between atoms: _380  and  _381
REMARK  151  A    between atoms: _381  and  _382
REMARK  152  A    between atoms: _386  and  _388
REMARK  153  A    between atoms: _388  and  _389
REMARK  154  A    between atoms: _388  and  _391
REMARK  155  A    between atoms: _391  and  _392
REMARK  156  A    between atoms: _392  and  _393
REMARK  157  A    between atoms: _398  and  _400
REMARK  158  A    between atoms: _400  and  _401
REMARK  159  A    between atoms: _400  and  _403
REMARK  160  A    between atoms: _403  and  _404
REMARK                            x       y       z     vdW  Elec       q    Type
REMARK                         _______ _______ _______ _____ _____    ______ ____
ROOT
ATOM      1  O   HOH     1      19.898  19.844  12.502  0.00  0.00    +0.000 OA
ENDROOT
TORSDOF 0
REMARK  Name = ../refined-set-2016/3ujd/3ujd_pocket.pdb
REMARK  160 active torsions:
REMARK  status: ('A' for Active; 'I' for Inactive)
REMARK    1  A    between atoms: _1  and  _3
REMARK    2  A    between atoms: _3  and  _4
REMARK    3  A    between atoms: _3  and  _6
REMARK    4  A    between atoms: _6  and  _7
REMARK    5  A    between atoms: _7  and  _8
REMARK    6  A    between atoms: _13  and  _15
REMARK    7  A    between atoms: _15  and  _16
REMARK    8  A    between atoms: _15  and  _18
REMARK    9  A    between atoms: _18  and  _19
REMARK   10  A    between atoms: _25  and  _27
REMARK   11  A    between atoms: _27  and  _28
REMARK   12  A    between atoms: _30  and  _32
REMARK   13  A    between atoms: _32  and  _33
REMARK   14  A    between atoms: _32  and  _35
REMARK   15  A    between atoms: _35  and  _36
REMARK   16  A    between atoms: _41  and  _42
REMARK   17  A    between atoms: _44  and  _46
REMARK   18  A    between atoms: _46  and  _47
REMARK   19  A    between atoms: _46  and  _49
REMARK   20  A    between atoms: _49  and  _50
REMARK   21  A    between atoms: _53  and  _55
REMARK   22  A    between atoms: _55  and  _56
REMARK   23  A    between atoms: _55  and  _58
REMARK   24  A    between atoms: _58  and  _59
REMARK   25  A    between atoms: _65  and  _67
REMARK   26  A    between atoms: _67  and  _68
REMARK   27  A    between atoms: _67  and  _70
REMARK   28  A    between atoms: _70  and  _71
REMARK   29  A    between atoms: _76  and  _77
REMARK   30  A    between atoms: _79  and  _81
REMARK   31  A    between atoms: _81  and  _82
REMARK   32  A    between atoms: _81  and  _84
REMARK   33  A    between atoms: _84  and  _85
REMARK   34  A    between atoms: _88  and  _90
REMARK   35  A    between atoms: _90  and  _91
REMARK   36  A    between atoms: _90  and  _93
REMARK   37  A    between atoms: _93  and  _94
REMARK   38  A    between atoms: _96  and  _98
REMARK   39  A    between atoms: _98  and  _99
REMARK   40  A    between atoms: _98  and  _101
REMARK   41  A    between atoms: _101  and  _102
REMARK   42  A    between atoms: _104  and  _106
REMARK   43  A    between atoms: _106  and  _107
REMARK   44  A    between atoms: _109  and  _111
REMARK   45  A    between atoms: _111  and  _112
REMARK   46  A    between atoms: _114  and  _116
REMARK   47  A    between atoms: _116  and  _117
REMARK   48  A    between atoms: _119  and  _121
REMARK   49  A    between atoms: _121  and  _122
REMARK   50  A    between atoms: _124  and  _126
REMARK   51  A    between atoms: _126  and  _127
REMARK   52  A    between atoms: _126  and  _129
REMARK   53  A    between atoms: _129  and  _130
REMARK   54  A    between atoms: _130  and  _131
REMARK   55  A    between atoms: _131  and  _132
REMARK   56  A    between atoms: _141  and  _143
REMARK   57  A    between atoms: _143  and  _144
REMARK   58  A    between atoms: _143  and  _146
REMARK   59  A    between atoms: _146  and  _147
REMARK   60  A    between atoms: _150  and  _152
REMARK   61  A    between atoms: _152  and  _153
REMARK   62  A    between atoms: _156  and  _158
REMARK   63  A    between atoms: _158  and  _159
REMARK   64  A    between atoms: _158  and  _161
REMARK   65  A    between atoms: _161  and  _162
REMARK   66  A    between atoms: _165  and  _167
REMARK   67  A    between atoms: _167  and  _168
REMARK   68  A    between atoms: _167  and  _170
REMARK   69  A    between atoms: _170  and  _171
REMARK   70  A    between atoms: _174  and  _176
REMARK   71  A    between atoms: _176  and  _177
REMARK   72  A    between atoms: _176  and  _179
REMARK   73  A    between atoms: _179  and  _180
REMARK   74  A    between atoms: _185  and  _187
REMARK   75  A    between atoms: _187  and  _188
REMARK   76  A    between atoms: _187  and  _190
REMARK   77  A    between atoms: _190  and  _191
REMARK   78  A    between atoms: _194  and  _196
REMARK   79  A    between atoms: _196  and  _197
REMARK   80  A    between atoms: _196  and  _199
REMARK   81  A    between atoms: _199  and  _200
REMARK   82  A    between atoms: _203  and  _205
REMARK   83  A    between atoms: _205  and  _206
REMARK   84  A    between atoms: _205  and  _208
REMARK   85  A    between atoms: _208  and  _209
REMARK   86  A    between atoms: _214  and  _215
REMARK   87  A    between atoms: _217  and  _219
REMARK   88  A    between atoms: _219  and  _220
REMARK   89  A    between atoms: _219  and  _222
REMARK   90  A    between atoms: _222  and  _223
REMARK   91  A    between atoms: _228  and  _229
REMARK   92  A    between atoms: _231  and  _233
REMARK   93  A    between atoms: _233  and  _234
REMARK   94  A    between atoms: _233  and  _236
REMARK   95  A    between atoms: _236  and  _237
REMARK   96  A    between atoms: _237  and  _238
REMARK   97  A    between atoms: _243  and  _245
REMARK   98  A    between atoms: _245  and  _246
REMARK   99  A    between atoms: _245  and  _248
REMARK  100  A    between atoms: _248  and  _249
REMARK  101  A    between atoms: _249  and  _250
REMARK  102  A    between atoms: _250  and  _251
REMARK  103  A    between atoms: _260  and  _262
REMARK  104  A    between atoms: _262  and  _263
REMARK  105  A    between atoms: _262  and  _265
REMARK  106  A    between atoms: _265  and  _266
REMARK  107  A    between atoms: _271  and  _272
REMARK  108  A    between atoms: _274  and  _276
REMARK  109  A    between atoms: _276  and  _277
REMARK  110  A    between atoms: _276  and  _279
REMARK  111  A    between atoms: _279  and  _280
REMARK  112  A    between atoms: _283  and  _285
REMARK  113  A    between atoms: _285  and  _286
REMARK  114  A    between atoms: _285  and  _288
REMARK  115  A    between atoms: _288  and  _289
REMARK  116  A    between atoms: _299  and  _301
REMARK  117  A    between atoms: _301  and  _302
REMARK  118  A    between atoms: _301  and  _304
REMARK  119  A    between atoms: _304  and  _305
REMARK  120  A    between atoms: _308  and  _310
REMARK  121  A    between atoms: _310  and  _311
REMARK  122  A    between atoms: _310  and  _313
REMARK  123  A    between atoms: _313  and  _314
REMARK  124  A    between atoms: _314  and  _315
REMARK  125  A    between atoms: _318  and  _320
REMARK  126  A    between atoms: _320  and  _321
REMARK  127  A    between atoms: _320  and  _323
REMARK  128  A    between atoms: _323  and  _324
REMARK  129  A    between atoms: _326  and  _328
REMARK  130  A    between atoms: _328  and  _329
REMARK  131  A    between atoms: _328  and  _331
REMARK  132  A    between atoms: _331  and  _332
REMARK  133  A    between atoms: _335  and  _337
REMARK  134  A    between atoms: _337  and  _338
REMARK  135  A    between atoms: _340  and  _342
REMARK  136  A    between atoms: _342  and  _343
REMARK  137  A    between atoms: _342  and  _345
REMARK  138  A    between atoms: _345  and  _346
REMARK  139  A    between atoms: _356  and  _358
REMARK  140  A    between atoms: _358  and  _359
REMARK  141  A    between atoms: _358  and  _361
REMARK  142  A    between atoms: _361  and  _362
REMARK  143  A    between atoms: _362  and  _363
REMARK  144  A    between atoms: _363  and  _364
REMARK  145  A    between atoms: _373  and  _375
REMARK  146  A    between atoms: _375  and  _376
REMARK  147  A    between atoms: _375  and  _378
REMARK  148  A    between atoms: _378  and  _379
REMARK  149  A    between atoms: _379  and  _380
REMARK  150  A    between atoms: _380  and  _381
REMARK  151  A    between atoms: _381  and  _382
REMARK  152  A    between atoms: _386  and  _388
REMARK  153  A    between atoms: _388  and  _389
REMARK  154  A    between atoms: _388  and  _391
REMARK  155  A    between atoms: _391  and  _392
REMARK  156  A    between atoms: _392  and  _393
REMARK  157  A    between atoms: _398  and  _400
REMARK  158  A    between atoms: _400  and  _401
REMARK  159  A    between atoms: _400  and  _403
REMARK  160  A    between atoms: _403  and  _404
REMARK                            x       y       z     vdW  Elec       q    Type
REMARK                         _______ _______ _______ _____ _____    ______ ____
ROOT
ATOM      1  O   HOH     1      20.986  20.103  15.139  0.00  0.00    +0.000 OA
ENDROOT
TORSDOF 0
REMARK  Name = ../refined-set-2016/3ujd/3ujd_pocket.pdb
REMARK  160 active torsions:
REMARK  status: ('A' for Active; 'I' for Inactive)
REMARK    1  A    between atoms: _1  and  _3
REMARK    2  A    between atoms: _3  and  _4
REMARK    3  A    between atoms: _3  and  _6
REMARK    4  A    between atoms: _6  and  _7
REMARK    5  A    between atoms: _7  and  _8
REMARK    6  A    between atoms: _13  and  _15
REMARK    7  A    between atoms: _15  and  _16
REMARK    8  A    between atoms: _15  and  _18
REMARK    9  A    between atoms: _18  and  _19
REMARK   10  A    between atoms: _25  and  _27
REMARK   11  A    between atoms: _27  and  _28
REMARK   12  A    between atoms: _30  and  _32
REMARK   13  A    between atoms: _32  and  _33
REMARK   14  A    between atoms: _32  and  _35
REMARK   15  A    between atoms: _35  and  _36
REMARK   16  A    between atoms: _41  and  _42
REMARK   17  A    between atoms: _44  and  _46
REMARK   18  A    between atoms: _46  and  _47
REMARK   19  A    between atoms: _46  and  _49
REMARK   20  A    between atoms: _49  and  _50
REMARK   21  A    between atoms: _53  and  _55
REMARK   22  A    between atoms: _55  and  _56
REMARK   23  A    between atoms: _55  and  _58
REMARK   24  A    between atoms: _58  and  _59
REMARK   25  A    between atoms: _65  and  _67
REMARK   26  A    between atoms: _67  and  _68
REMARK   27  A    between atoms: _67  and  _70
REMARK   28  A    between atoms: _70  and  _71
REMARK   29  A    between atoms: _76  and  _77
REMARK   30  A    between atoms: _79  and  _81
REMARK   31  A    between atoms: _81  and  _82
REMARK   32  A    between atoms: _81  and  _84
REMARK   33  A    between atoms: _84  and  _85
REMARK   34  A    between atoms: _88  and  _90
REMARK   35  A    between atoms: _90  and  _91
REMARK   36  A    between atoms: _90  and  _93
REMARK   37  A    between atoms: _93  and  _94
REMARK   38  A    between atoms: _96  and  _98
REMARK   39  A    between atoms: _98  and  _99
REMARK   40  A    between atoms: _98  and  _101
REMARK   41  A    between atoms: _101  and  _102
REMARK   42  A    between atoms: _104  and  _106
REMARK   43  A    between atoms: _106  and  _107
REMARK   44  A    between atoms: _109  and  _111
REMARK   45  A    between atoms: _111  and  _112
REMARK   46  A    between atoms: _114  and  _116
REMARK   47  A    between atoms: _116  and  _117
REMARK   48  A    between atoms: _119  and  _121
REMARK   49  A    between atoms: _121  and  _122
REMARK   50  A    between atoms: _124  and  _126
REMARK   51  A    between atoms: _126  and  _127
REMARK   52  A    between atoms: _126  and  _129
REMARK   53  A    between atoms: _129  and  _130
REMARK   54  A    between atoms: _130  and  _131
REMARK   55  A    between atoms: _131  and  _132
REMARK   56  A    between atoms: _141  and  _143
REMARK   57  A    between atoms: _143  and  _144
REMARK   58  A    between atoms: _143  and  _146
REMARK   59  A    between atoms: _146  and  _147
REMARK   60  A    between atoms: _150  and  _152
REMARK   61  A    between atoms: _152  and  _153
REMARK   62  A    between atoms: _156  and  _158
REMARK   63  A    between atoms: _158  and  _159
REMARK   64  A    between atoms: _158  and  _161
REMARK   65  A    between atoms: _161  and  _162
REMARK   66  A    between atoms: _165  and  _167
REMARK   67  A    between atoms: _167  and  _168
REMARK   68  A    between atoms: _167  and  _170
REMARK   69  A    between atoms: _170  and  _171
REMARK   70  A    between atoms: _174  and  _176
REMARK   71  A    between atoms: _176  and  _177
REMARK   72  A    between atoms: _176  and  _179
REMARK   73  A    between atoms: _179  and  _180
REMARK   74  A    between atoms: _185  and  _187
REMARK   75  A    between atoms: _187  and  _188
REMARK   76  A    between atoms: _187  and  _190
REMARK   77  A    between atoms: _190  and  _191
REMARK   78  A    between atoms: _194  and  _196
REMARK   79  A    between atoms: _196  and  _197
REMARK   80  A    between atoms: _196  and  _199
REMARK   81  A    between atoms: _199  and  _200
REMARK   82  A    between atoms: _203  and  _205
REMARK   83  A    between atoms: _205  and  _206
REMARK   84  A    between atoms: _205  and  _208
REMARK   85  A    between atoms: _208  and  _209
REMARK   86  A    between atoms: _214  and  _215
REMARK   87  A    between atoms: _217  and  _219
REMARK   88  A    between atoms: _219  and  _220
REMARK   89  A    between atoms: _219  and  _222
REMARK   90  A    between atoms: _222  and  _223
REMARK   91  A    between atoms: _228  and  _229
REMARK   92  A    between atoms: _231  and  _233
REMARK   93  A    between atoms: _233  and  _234
REMARK   94  A    between atoms: _233  and  _236
REMARK   95  A    between atoms: _236  and  _237
REMARK   96  A    between atoms: _237  and  _238
REMARK   97  A    between atoms: _243  and  _245
REMARK   98  A    between atoms: _245  and  _246
REMARK   99  A    between atoms: _245  and  _248
REMARK  100  A    between atoms: _248  and  _249
REMARK  101  A    between atoms: _249  and  _250
REMARK  102  A    between atoms: _250  and  _251
REMARK  103  A    between atoms: _260  and  _262
REMARK  104  A    between atoms: _262  and  _263
REMARK  105  A    between atoms: _262  and  _265
REMARK  106  A    between atoms: _265  and  _266
REMARK  107  A    between atoms: _271  and  _272
REMARK  108  A    between atoms: _274  and  _276
REMARK  109  A    between atoms: _276  and  _277
REMARK  110  A    between atoms: _276  and  _279
REMARK  111  A    between atoms: _279  and  _280
REMARK  112  A    between atoms: _283  and  _285
REMARK  113  A    between atoms: _285  and  _286
REMARK  114  A    between atoms: _285  and  _288
REMARK  115  A    between atoms: _288  and  _289
REMARK  116  A    between atoms: _299  and  _301
REMARK  117  A    between atoms: _301  and  _302
REMARK  118  A    between atoms: _301  and  _304
REMARK  119  A    between atoms: _304  and  _305
REMARK  120  A    between atoms: _308  and  _310
REMARK  121  A    between atoms: _310  and  _311
REMARK  122  A    between atoms: _310  and  _313
REMARK  123  A    between atoms: _313  and  _314
REMARK  124  A    between atoms: _314  and  _315
REMARK  125  A    between atoms: _318  and  _320
REMARK  126  A    between atoms: _320  and  _321
REMARK  127  A    between atoms: _320  and  _323
REMARK  128  A    between atoms: _323  and  _324
REMARK  129  A    between atoms: _326  and  _328
REMARK  130  A    between atoms: _328  and  _329
REMARK  131  A    between atoms: _328  and  _331
REMARK  132  A    between atoms: _331  and  _332
REMARK  133  A    between atoms: _335  and  _337
REMARK  134  A    between atoms: _337  and  _338
REMARK  135  A    between atoms: _340  and  _342
REMARK  136  A    between atoms: _342  and  _343
REMARK  137  A    between atoms: _342  and  _345
REMARK  138  A    between atoms: _345  and  _346
REMARK  139  A    between atoms: _356  and  _358
REMARK  140  A    between atoms: _358  and  _359
REMARK  141  A    between atoms: _358  and  _361
REMARK  142  A    between atoms: _361  and  _362
REMARK  143  A    between atoms: _362  and  _363
REMARK  144  A    between atoms: _363  and  _364
REMARK  145  A    between atoms: _373  and  _375
REMARK  146  A    between atoms: _375  and  _376
REMARK  147  A    between atoms: _375  and  _378
REMARK  148  A    between atoms: _378  and  _379
REMARK  149  A    between atoms: _379  and  _380
REMARK  150  A    between atoms: _380  and  _381
REMARK  151  A    between atoms: _381  and  _382
REMARK  152  A    between atoms: _386  and  _388
REMARK  153  A    between atoms: _388  and  _389
REMARK  154  A    between atoms: _388  and  _391
REMARK  155  A    between atoms: _391  and  _392
REMARK  156  A    between atoms: _392  and  _393
REMARK  157  A    between atoms: _398  and  _400
REMARK  158  A    between atoms: _400  and  _401
REMARK  159  A    between atoms: _400  and  _403
REMARK  160  A    between atoms: _403  and  _404
REMARK                            x       y       z     vdW  Elec       q    Type
REMARK                         _______ _______ _______ _____ _____    ______ ____
ROOT
ATOM      1  O   HOH     1      19.899  18.528  17.236  0.00  0.00    +0.000 OA
ENDROOT
TORSDOF 0
REMARK  Name = ../refined-set-2016/3ujd/3ujd_pocket.pdb
REMARK  160 active torsions:
REMARK  status: ('A' for Active; 'I' for Inactive)
REMARK    1  A    between atoms: _1  and  _3
REMARK    2  A    between atoms: _3  and  _4
REMARK    3  A    between atoms: _3  and  _6
REMARK    4  A    between atoms: _6  and  _7
REMARK    5  A    between atoms: _7  and  _8
REMARK    6  A    between atoms: _13  and  _15
REMARK    7  A    between atoms: _15  and  _16
REMARK    8  A    between atoms: _15  and  _18
REMARK    9  A    between atoms: _18  and  _19
REMARK   10  A    between atoms: _25  and  _27
REMARK   11  A    between atoms: _27  and  _28
REMARK   12  A    between atoms: _30  and  _32
REMARK   13  A    between atoms: _32  and  _33
REMARK   14  A    between atoms: _32  and  _35
REMARK   15  A    between atoms: _35  and  _36
REMARK   16  A    between atoms: _41  and  _42
REMARK   17  A    between atoms: _44  and  _46
REMARK   18  A    between atoms: _46  and  _47
REMARK   19  A    between atoms: _46  and  _49
REMARK   20  A    between atoms: _49  and  _50
REMARK   21  A    between atoms: _53  and  _55
REMARK   22  A    between atoms: _55  and  _56
REMARK   23  A    between atoms: _55  and  _58
REMARK   24  A    between atoms: _58  and  _59
REMARK   25  A    between atoms: _65  and  _67
REMARK   26  A    between atoms: _67  and  _68
REMARK   27  A    between atoms: _67  and  _70
REMARK   28  A    between atoms: _70  and  _71
REMARK   29  A    between atoms: _76  and  _77
REMARK   30  A    between atoms: _79  and  _81
REMARK   31  A    between atoms: _81  and  _82
REMARK   32  A    between atoms: _81  and  _84
REMARK   33  A    between atoms: _84  and  _85
REMARK   34  A    between atoms: _88  and  _90
REMARK   35  A    between atoms: _90  and  _91
REMARK   36  A    between atoms: _90  and  _93
REMARK   37  A    between atoms: _93  and  _94
REMARK   38  A    between atoms: _96  and  _98
REMARK   39  A    between atoms: _98  and  _99
REMARK   40  A    between atoms: _98  and  _101
REMARK   41  A    between atoms: _101  and  _102
REMARK   42  A    between atoms: _104  and  _106
REMARK   43  A    between atoms: _106  and  _107
REMARK   44  A    between atoms: _109  and  _111
REMARK   45  A    between atoms: _111  and  _112
REMARK   46  A    between atoms: _114  and  _116
REMARK   47  A    between atoms: _116  and  _117
REMARK   48  A    between atoms: _119  and  _121
REMARK   49  A    between atoms: _121  and  _122
REMARK   50  A    between atoms: _124  and  _126
REMARK   51  A    between atoms: _126  and  _127
REMARK   52  A    between atoms: _126  and  _129
REMARK   53  A    between atoms: _129  and  _130
REMARK   54  A    between atoms: _130  and  _131
REMARK   55  A    between atoms: _131  and  _132
REMARK   56  A    between atoms: _141  and  _143
REMARK   57  A    between atoms: _143  and  _144
REMARK   58  A    between atoms: _143  and  _146
REMARK   59  A    between atoms: _146  and  _147
REMARK   60  A    between atoms: _150  and  _152
REMARK   61  A    between atoms: _152  and  _153
REMARK   62  A    between atoms: _156  and  _158
REMARK   63  A    between atoms: _158  and  _159
REMARK   64  A    between atoms: _158  and  _161
REMARK   65  A    between atoms: _161  and  _162
REMARK   66  A    between atoms: _165  and  _167
REMARK   67  A    between atoms: _167  and  _168
REMARK   68  A    between atoms: _167  and  _170
REMARK   69  A    between atoms: _170  and  _171
REMARK   70  A    between atoms: _174  and  _176
REMARK   71  A    between atoms: _176  and  _177
REMARK   72  A    between atoms: _176  and  _179
REMARK   73  A    between atoms: _179  and  _180
REMARK   74  A    between atoms: _185  and  _187
REMARK   75  A    between atoms: _187  and  _188
REMARK   76  A    between atoms: _187  and  _190
REMARK   77  A    between atoms: _190  and  _191
REMARK   78  A    between atoms: _194  and  _196
REMARK   79  A    between atoms: _196  and  _197
REMARK   80  A    between atoms: _196  and  _199
REMARK   81  A    between atoms: _199  and  _200
REMARK   82  A    between atoms: _203  and  _205
REMARK   83  A    between atoms: _205  and  _206
REMARK   84  A    between atoms: _205  and  _208
REMARK   85  A    between atoms: _208  and  _209
REMARK   86  A    between atoms: _214  and  _215
REMARK   87  A    between atoms: _217  and  _219
REMARK   88  A    between atoms: _219  and  _220
REMARK   89  A    between atoms: _219  and  _222
REMARK   90  A    between atoms: _222  and  _223
REMARK   91  A    between atoms: _228  and  _229
REMARK   92  A    between atoms: _231  and  _233
REMARK   93  A    between atoms: _233  and  _234
REMARK   94  A    between atoms: _233  and  _236
REMARK   95  A    between atoms: _236  and  _237
REMARK   96  A    between atoms: _237  and  _238
REMARK   97  A    between atoms: _243  and  _245
REMARK   98  A    between atoms: _245  and  _246
REMARK   99  A    between atoms: _245  and  _248
REMARK  100  A    between atoms: _248  and  _249
REMARK  101  A    between atoms: _249  and  _250
REMARK  102  A    between atoms: _250  and  _251
REMARK  103  A    between atoms: _260  and  _262
REMARK  104  A    between atoms: _262  and  _263
REMARK  105  A    between atoms: _262  and  _265
REMARK  106  A    between atoms: _265  and  _266
REMARK  107  A    between atoms: _271  and  _272
REMARK  108  A    between atoms: _274  and  _276
REMARK  109  A    between atoms: _276  and  _277
REMARK  110  A    between atoms: _276  and  _279
REMARK  111  A    between atoms: _279  and  _280
REMARK  112  A    between atoms: _283  and  _285
REMARK  113  A    between atoms: _285  and  _286
REMARK  114  A    between atoms: _285  and  _288
REMARK  115  A    between atoms: _288  and  _289
REMARK  116  A    between atoms: _299  and  _301
REMARK  117  A    between atoms: _301  and  _302
REMARK  118  A    between atoms: _301  and  _304
REMARK  119  A    between atoms: _304  and  _305
REMARK  120  A    between atoms: _308  and  _310
REMARK  121  A    between atoms: _310  and  _311
REMARK  122  A    between atoms: _310  and  _313
REMARK  123  A    between atoms: _313  and  _314
REMARK  124  A    between atoms: _314  and  _315
REMARK  125  A    between atoms: _318  and  _320
REMARK  126  A    between atoms: _320  and  _321
REMARK  127  A    between atoms: _320  and  _323
REMARK  128  A    between atoms: _323  and  _324
REMARK  129  A    between atoms: _326  and  _328
REMARK  130  A    between atoms: _328  and  _329
REMARK  131  A    between atoms: _328  and  _331
REMARK  132  A    between atoms: _331  and  _332
REMARK  133  A    between atoms: _335  and  _337
REMARK  134  A    between atoms: _337  and  _338
REMARK  135  A    between atoms: _340  and  _342
REMARK  136  A    between atoms: _342  and  _343
REMARK  137  A    between atoms: _342  and  _345
REMARK  138  A    between atoms: _345  and  _346
REMARK  139  A    between atoms: _356  and  _358
REMARK  140  A    between atoms: _358  and  _359
REMARK  141  A    between atoms: _358  and  _361
REMARK  142  A    between atoms: _361  and  _362
REMARK  143  A    between atoms: _362  and  _363
REMARK  144  A    between atoms: _363  and  _364
REMARK  145  A    between atoms: _373  and  _375
REMARK  146  A    between atoms: _375  and  _376
REMARK  147  A    between atoms: _375  and  _378
REMARK  148  A    between atoms: _378  and  _379
REMARK  149  A    between atoms: _379  and  _380
REMARK  150  A    between atoms: _380  and  _381
REMARK  151  A    between atoms: _381  and  _382
REMARK  152  A    between atoms: _386  and  _388
REMARK  153  A    between atoms: _388  and  _389
REMARK  154  A    between atoms: _388  and  _391
REMARK  155  A    between atoms: _391  and  _392
REMARK  156  A    between atoms: _392  and  _393
REMARK  157  A    between atoms: _398  and  _400
REMARK  158  A    between atoms: _400  and  _401
REMARK  159  A    between atoms: _400  and  _403
REMARK  160  A    between atoms: _403  and  _404
REMARK                            x       y       z     vdW  Elec       q    Type
REMARK                         _______ _______ _______ _____ _____    ______ ____
ROOT
ATOM      1  O   HOH     1      13.341  15.362  26.009  0.00  0.00    +0.000 OA
ENDROOT
TORSDOF 0
REMARK  Name = ../refined-set-2016/3ujd/3ujd_pocket.pdb
REMARK  160 active torsions:
REMARK  status: ('A' for Active; 'I' for Inactive)
REMARK    1  A    between atoms: _1  and  _3
REMARK    2  A    between atoms: _3  and  _4
REMARK    3  A    between atoms: _3  and  _6
REMARK    4  A    between atoms: _6  and  _7
REMARK    5  A    between atoms: _7  and  _8
REMARK    6  A    between atoms: _13  and  _15
REMARK    7  A    between atoms: _15  and  _16
REMARK    8  A    between atoms: _15  and  _18
REMARK    9  A    between atoms: _18  and  _19
REMARK   10  A    between atoms: _25  and  _27
REMARK   11  A    between atoms: _27  and  _28
REMARK   12  A    between atoms: _30  and  _32
REMARK   13  A    between atoms: _32  and  _33
REMARK   14  A    between atoms: _32  and  _35
REMARK   15  A    between atoms: _35  and  _36
REMARK   16  A    between atoms: _41  and  _42
REMARK   17  A    between atoms: _44  and  _46
REMARK   18  A    between atoms: _46  and  _47
REMARK   19  A    between atoms: _46  and  _49
REMARK   20  A    between atoms: _49  and  _50
REMARK   21  A    between atoms: _53  and  _55
REMARK   22  A    between atoms: _55  and  _56
REMARK   23  A    between atoms: _55  and  _58
REMARK   24  A    between atoms: _58  and  _59
REMARK   25  A    between atoms: _65  and  _67
REMARK   26  A    between atoms: _67  and  _68
REMARK   27  A    between atoms: _67  and  _70
REMARK   28  A    between atoms: _70  and  _71
REMARK   29  A    between atoms: _76  and  _77
REMARK   30  A    between atoms: _79  and  _81
REMARK   31  A    between atoms: _81  and  _82
REMARK   32  A    between atoms: _81  and  _84
REMARK   33  A    between atoms: _84  and  _85
REMARK   34  A    between atoms: _88  and  _90
REMARK   35  A    between atoms: _90  and  _91
REMARK   36  A    between atoms: _90  and  _93
REMARK   37  A    between atoms: _93  and  _94
REMARK   38  A    between atoms: _96  and  _98
REMARK   39  A    between atoms: _98  and  _99
REMARK   40  A    between atoms: _98  and  _101
REMARK   41  A    between atoms: _101  and  _102
REMARK   42  A    between atoms: _104  and  _106
REMARK   43  A    between atoms: _106  and  _107
REMARK   44  A    between atoms: _109  and  _111
REMARK   45  A    between atoms: _111  and  _112
REMARK   46  A    between atoms: _114  and  _116
REMARK   47  A    between atoms: _116  and  _117
REMARK   48  A    between atoms: _119  and  _121
REMARK   49  A    between atoms: _121  and  _122
REMARK   50  A    between atoms: _124  and  _126
REMARK   51  A    between atoms: _126  and  _127
REMARK   52  A    between atoms: _126  and  _129
REMARK   53  A    between atoms: _129  and  _130
REMARK   54  A    between atoms: _130  and  _131
REMARK   55  A    between atoms: _131  and  _132
REMARK   56  A    between atoms: _141  and  _143
REMARK   57  A    between atoms: _143  and  _144
REMARK   58  A    between atoms: _143  and  _146
REMARK   59  A    between atoms: _146  and  _147
REMARK   60  A    between atoms: _150  and  _152
REMARK   61  A    between atoms: _152  and  _153
REMARK   62  A    between atoms: _156  and  _158
REMARK   63  A    between atoms: _158  and  _159
REMARK   64  A    between atoms: _158  and  _161
REMARK   65  A    between atoms: _161  and  _162
REMARK   66  A    between atoms: _165  and  _167
REMARK   67  A    between atoms: _167  and  _168
REMARK   68  A    between atoms: _167  and  _170
REMARK   69  A    between atoms: _170  and  _171
REMARK   70  A    between atoms: _174  and  _176
REMARK   71  A    between atoms: _176  and  _177
REMARK   72  A    between atoms: _176  and  _179
REMARK   73  A    between atoms: _179  and  _180
REMARK   74  A    between atoms: _185  and  _187
REMARK   75  A    between atoms: _187  and  _188
REMARK   76  A    between atoms: _187  and  _190
REMARK   77  A    between atoms: _190  and  _191
REMARK   78  A    between atoms: _194  and  _196
REMARK   79  A    between atoms: _196  and  _197
REMARK   80  A    between atoms: _196  and  _199
REMARK   81  A    between atoms: _199  and  _200
REMARK   82  A    between atoms: _203  and  _205
REMARK   83  A    between atoms: _205  and  _206
REMARK   84  A    between atoms: _205  and  _208
REMARK   85  A    between atoms: _208  and  _209
REMARK   86  A    between atoms: _214  and  _215
REMARK   87  A    between atoms: _217  and  _219
REMARK   88  A    between atoms: _219  and  _220
REMARK   89  A    between atoms: _219  and  _222
REMARK   90  A    between atoms: _222  and  _223
REMARK   91  A    between atoms: _228  and  _229
REMARK   92  A    between atoms: _231  and  _233
REMARK   93  A    between atoms: _233  and  _234
REMARK   94  A    between atoms: _233  and  _236
REMARK   95  A    between atoms: _236  and  _237
REMARK   96  A    between atoms: _237  and  _238
REMARK   97  A    between atoms: _243  and  _245
REMARK   98  A    between atoms: _245  and  _246
REMARK   99  A    between atoms: _245  and  _248
REMARK  100  A    between atoms: _248  and  _249
REMARK  101  A    between atoms: _249  and  _250
REMARK  102  A    between atoms: _250  and  _251
REMARK  103  A    between atoms: _260  and  _262
REMARK  104  A    between atoms: _262  and  _263
REMARK  105  A    between atoms: _262  and  _265
REMARK  106  A    between atoms: _265  and  _266
REMARK  107  A    between atoms: _271  and  _272
REMARK  108  A    between atoms: _274  and  _276
REMARK  109  A    between atoms: _276  and  _277
REMARK  110  A    between atoms: _276  and  _279
REMARK  111  A    between atoms: _279  and  _280
REMARK  112  A    between atoms: _283  and  _285
REMARK  113  A    between atoms: _285  and  _286
REMARK  114  A    between atoms: _285  and  _288
REMARK  115  A    between atoms: _288  and  _289
REMARK  116  A    between atoms: _299  and  _301
REMARK  117  A    between atoms: _301  and  _302
REMARK  118  A    between atoms: _301  and  _304
REMARK  119  A    between atoms: _304  and  _305
REMARK  120  A    between atoms: _308  and  _310
REMARK  121  A    between atoms: _310  and  _311
REMARK  122  A    between atoms: _310  and  _313
REMARK  123  A    between atoms: _313  and  _314
REMARK  124  A    between atoms: _314  and  _315
REMARK  125  A    between atoms: _318  and  _320
REMARK  126  A    between atoms: _320  and  _321
REMARK  127  A    between atoms: _320  and  _323
REMARK  128  A    between atoms: _323  and  _324
REMARK  129  A    between atoms: _326  and  _328
REMARK  130  A    between atoms: _328  and  _329
REMARK  131  A    between atoms: _328  and  _331
REMARK  132  A    between atoms: _331  and  _332
REMARK  133  A    between atoms: _335  and  _337
REMARK  134  A    between atoms: _337  and  _338
REMARK  135  A    between atoms: _340  and  _342
REMARK  136  A    between atoms: _342  and  _343
REMARK  137  A    between atoms: _342  and  _345
REMARK  138  A    between atoms: _345  and  _346
REMARK  139  A    between atoms: _356  and  _358
REMARK  140  A    between atoms: _358  and  _359
REMARK  141  A    between atoms: _358  and  _361
REMARK  142  A    between atoms: _361  and  _362
REMARK  143  A    between atoms: _362  and  _363
REMARK  144  A    between atoms: _363  and  _364
REMARK  145  A    between atoms: _373  and  _375
REMARK  146  A    between atoms: _375  and  _376
REMARK  147  A    between atoms: _375  and  _378
REMARK  148  A    between atoms: _378  and  _379
REMARK  149  A    between atoms: _379  and  _380
REMARK  150  A    between atoms: _380  and  _381
REMARK  151  A    between atoms: _381  and  _382
REMARK  152  A    between atoms: _386  and  _388
REMARK  153  A    between atoms: _388  and  _389
REMARK  154  A    between atoms: _388  and  _391
REMARK  155  A    between atoms: _391  and  _392
REMARK  156  A    between atoms: _392  and  _393
REMARK  157  A    between atoms: _398  and  _400
REMARK  158  A    between atoms: _400  and  _401
REMARK  159  A    between atoms: _400  and  _403
REMARK  160  A    between atoms: _403  and  _404
REMARK                            x       y       z     vdW  Elec       q    Type
REMARK                         _______ _______ _______ _____ _____    ______ ____
ROOT
ATOM      1  O   HOH     1      11.821   4.917  22.836  0.00  0.00    +0.000 OA
ENDROOT
TORSDOF 0
REMARK  Name = ../refined-set-2016/3ujd/3ujd_pocket.pdb
REMARK  160 active torsions:
REMARK  status: ('A' for Active; 'I' for Inactive)
REMARK    1  A    between atoms: _1  and  _3
REMARK    2  A    between atoms: _3  and  _4
REMARK    3  A    between atoms: _3  and  _6
REMARK    4  A    between atoms: _6  and  _7
REMARK    5  A    between atoms: _7  and  _8
REMARK    6  A    between atoms: _13  and  _15
REMARK    7  A    between atoms: _15  and  _16
REMARK    8  A    between atoms: _15  and  _18
REMARK    9  A    between atoms: _18  and  _19
REMARK   10  A    between atoms: _25  and  _27
REMARK   11  A    between atoms: _27  and  _28
REMARK   12  A    between atoms: _30  and  _32
REMARK   13  A    between atoms: _32  and  _33
REMARK   14  A    between atoms: _32  and  _35
REMARK   15  A    between atoms: _35  and  _36
REMARK   16  A    between atoms: _41  and  _42
REMARK   17  A    between atoms: _44  and  _46
REMARK   18  A    between atoms: _46  and  _47
REMARK   19  A    between atoms: _46  and  _49
REMARK   20  A    between atoms: _49  and  _50
REMARK   21  A    between atoms: _53  and  _55
REMARK   22  A    between atoms: _55  and  _56
REMARK   23  A    between atoms: _55  and  _58
REMARK   24  A    between atoms: _58  and  _59
REMARK   25  A    between atoms: _65  and  _67
REMARK   26  A    between atoms: _67  and  _68
REMARK   27  A    between atoms: _67  and  _70
REMARK   28  A    between atoms: _70  and  _71
REMARK   29  A    between atoms: _76  and  _77
REMARK   30  A    between atoms: _79  and  _81
REMARK   31  A    between atoms: _81  and  _82
REMARK   32  A    between atoms: _81  and  _84
REMARK   33  A    between atoms: _84  and  _85
REMARK   34  A    between atoms: _88  and  _90
REMARK   35  A    between atoms: _90  and  _91
REMARK   36  A    between atoms: _90  and  _93
REMARK   37  A    between atoms: _93  and  _94
REMARK   38  A    between atoms: _96  and  _98
REMARK   39  A    between atoms: _98  and  _99
REMARK   40  A    between atoms: _98  and  _101
REMARK   41  A    between atoms: _101  and  _102
REMARK   42  A    between atoms: _104  and  _106
REMARK   43  A    between atoms: _106  and  _107
REMARK   44  A    between atoms: _109  and  _111
REMARK   45  A    between atoms: _111  and  _112
REMARK   46  A    between atoms: _114  and  _116
REMARK   47  A    between atoms: _116  and  _117
REMARK   48  A    between atoms: _119  and  _121
REMARK   49  A    between atoms: _121  and  _122
REMARK   50  A    between atoms: _124  and  _126
REMARK   51  A    between atoms: _126  and  _127
REMARK   52  A    between atoms: _126  and  _129
REMARK   53  A    between atoms: _129  and  _130
REMARK   54  A    between atoms: _130  and  _131
REMARK   55  A    between atoms: _131  and  _132
REMARK   56  A    between atoms: _141  and  _143
REMARK   57  A    between atoms: _143  and  _144
REMARK   58  A    between atoms: _143  and  _146
REMARK   59  A    between atoms: _146  and  _147
REMARK   60  A    between atoms: _150  and  _152
REMARK   61  A    between atoms: _152  and  _153
REMARK   62  A    between atoms: _156  and  _158
REMARK   63  A    between atoms: _158  and  _159
REMARK   64  A    between atoms: _158  and  _161
REMARK   65  A    between atoms: _161  and  _162
REMARK   66  A    between atoms: _165  and  _167
REMARK   67  A    between atoms: _167  and  _168
REMARK   68  A    between atoms: _167  and  _170
REMARK   69  A    between atoms: _170  and  _171
REMARK   70  A    between atoms: _174  and  _176
REMARK   71  A    between atoms: _176  and  _177
REMARK   72  A    between atoms: _176  and  _179
REMARK   73  A    between atoms: _179  and  _180
REMARK   74  A    between atoms: _185  and  _187
REMARK   75  A    between atoms: _187  and  _188
REMARK   76  A    between atoms: _187  and  _190
REMARK   77  A    between atoms: _190  and  _191
REMARK   78  A    between atoms: _194  and  _196
REMARK   79  A    between atoms: _196  and  _197
REMARK   80  A    between atoms: _196  and  _199
REMARK   81  A    between atoms: _199  and  _200
REMARK   82  A    between atoms: _203  and  _205
REMARK   83  A    between atoms: _205  and  _206
REMARK   84  A    between atoms: _205  and  _208
REMARK   85  A    between atoms: _208  and  _209
REMARK   86  A    between atoms: _214  and  _215
REMARK   87  A    between atoms: _217  and  _219
REMARK   88  A    between atoms: _219  and  _220
REMARK   89  A    between atoms: _219  and  _222
REMARK   90  A    between atoms: _222  and  _223
REMARK   91  A    between atoms: _228  and  _229
REMARK   92  A    between atoms: _231  and  _233
REMARK   93  A    between atoms: _233  and  _234
REMARK   94  A    between atoms: _233  and  _236
REMARK   95  A    between atoms: _236  and  _237
REMARK   96  A    between atoms: _237  and  _238
REMARK   97  A    between atoms: _243  and  _245
REMARK   98  A    between atoms: _245  and  _246
REMARK   99  A    between atoms: _245  and  _248
REMARK  100  A    between atoms: _248  and  _249
REMARK  101  A    between atoms: _249  and  _250
REMARK  102  A    between atoms: _250  and  _251
REMARK  103  A    between atoms: _260  and  _262
REMARK  104  A    between atoms: _262  and  _263
REMARK  105  A    between atoms: _262  and  _265
REMARK  106  A    between atoms: _265  and  _266
REMARK  107  A    between atoms: _271  and  _272
REMARK  108  A    between atoms: _274  and  _276
REMARK  109  A    between atoms: _276  and  _277
REMARK  110  A    between atoms: _276  and  _279
REMARK  111  A    between atoms: _279  and  _280
REMARK  112  A    between atoms: _283  and  _285
REMARK  113  A    between atoms: _285  and  _286
REMARK  114  A    between atoms: _285  and  _288
REMARK  115  A    between atoms: _288  and  _289
REMARK  116  A    between atoms: _299  and  _301
REMARK  117  A    between atoms: _301  and  _302
REMARK  118  A    between atoms: _301  and  _304
REMARK  119  A    between atoms: _304  and  _305
REMARK  120  A    between atoms: _308  and  _310
REMARK  121  A    between atoms: _310  and  _311
REMARK  122  A    between atoms: _310  and  _313
REMARK  123  A    between atoms: _313  and  _314
REMARK  124  A    between atoms: _314  and  _315
REMARK  125  A    between atoms: _318  and  _320
REMARK  126  A    between atoms: _320  and  _321
REMARK  127  A    between atoms: _320  and  _323
REMARK  128  A    between atoms: _323  and  _324
REMARK  129  A    between atoms: _326  and  _328
REMARK  130  A    between atoms: _328  and  _329
REMARK  131  A    between atoms: _328  and  _331
REMARK  132  A    between atoms: _331  and  _332
REMARK  133  A    between atoms: _335  and  _337
REMARK  134  A    between atoms: _337  and  _338
REMARK  135  A    between atoms: _340  and  _342
REMARK  136  A    between atoms: _342  and  _343
REMARK  137  A    between atoms: _342  and  _345
REMARK  138  A    between atoms: _345  and  _346
REMARK  139  A    between atoms: _356  and  _358
REMARK  140  A    between atoms: _358  and  _359
REMARK  141  A    between atoms: _358  and  _361
REMARK  142  A    between atoms: _361  and  _362
REMARK  143  A    between atoms: _362  and  _363
REMARK  144  A    between atoms: _363  and  _364
REMARK  145  A    between atoms: _373  and  _375
REMARK  146  A    between atoms: _375  and  _376
REMARK  147  A    between atoms: _375  and  _378
REMARK  148  A    between atoms: _378  and  _379
REMARK  149  A    between atoms: _379  and  _380
REMARK  150  A    between atoms: _380  and  _381
REMARK  151  A    between atoms: _381  and  _382
REMARK  152  A    between atoms: _386  and  _388
REMARK  153  A    between atoms: _388  and  _389
REMARK  154  A    between atoms: _388  and  _391
REMARK  155  A    between atoms: _391  and  _392
REMARK  156  A    between atoms: _392  and  _393
REMARK  157  A    between atoms: _398  and  _400
REMARK  158  A    between atoms: _400  and  _401
REMARK  159  A    between atoms: _400  and  _403
REMARK  160  A    between atoms: _403  and  _404
REMARK                            x       y       z     vdW  Elec       q    Type
REMARK                         _______ _______ _______ _____ _____    ______ ____
ROOT
ATOM      1  O   HOH     1      21.805   5.052  20.316  0.00  0.00    +0.000 OA
ENDROOT
TORSDOF 0
REMARK  Name = ../refined-set-2016/3ujd/3ujd_pocket.pdb
REMARK  160 active torsions:
REMARK  status: ('A' for Active; 'I' for Inactive)
REMARK    1  A    between atoms: _1  and  _3
REMARK    2  A    between atoms: _3  and  _4
REMARK    3  A    between atoms: _3  and  _6
REMARK    4  A    between atoms: _6  and  _7
REMARK    5  A    between atoms: _7  and  _8
REMARK    6  A    between atoms: _13  and  _15
REMARK    7  A    between atoms: _15  and  _16
REMARK    8  A    between atoms: _15  and  _18
REMARK    9  A    between atoms: _18  and  _19
REMARK   10  A    between atoms: _25  and  _27
REMARK   11  A    between atoms: _27  and  _28
REMARK   12  A    between atoms: _30  and  _32
REMARK   13  A    between atoms: _32  and  _33
REMARK   14  A    between atoms: _32  and  _35
REMARK   15  A    between atoms: _35  and  _36
REMARK   16  A    between atoms: _41  and  _42
REMARK   17  A    between atoms: _44  and  _46
REMARK   18  A    between atoms: _46  and  _47
REMARK   19  A    between atoms: _46  and  _49
REMARK   20  A    between atoms: _49  and  _50
REMARK   21  A    between atoms: _53  and  _55
REMARK   22  A    between atoms: _55  and  _56
REMARK   23  A    between atoms: _55  and  _58
REMARK   24  A    between atoms: _58  and  _59
REMARK   25  A    between atoms: _65  and  _67
REMARK   26  A    between atoms: _67  and  _68
REMARK   27  A    between atoms: _67  and  _70
REMARK   28  A    between atoms: _70  and  _71
REMARK   29  A    between atoms: _76  and  _77
REMARK   30  A    between atoms: _79  and  _81
REMARK   31  A    between atoms: _81  and  _82
REMARK   32  A    between atoms: _81  and  _84
REMARK   33  A    between atoms: _84  and  _85
REMARK   34  A    between atoms: _88  and  _90
REMARK   35  A    between atoms: _90  and  _91
REMARK   36  A    between atoms: _90  and  _93
REMARK   37  A    between atoms: _93  and  _94
REMARK   38  A    between atoms: _96  and  _98
REMARK   39  A    between atoms: _98  and  _99
REMARK   40  A    between atoms: _98  and  _101
REMARK   41  A    between atoms: _101  and  _102
REMARK   42  A    between atoms: _104  and  _106
REMARK   43  A    between atoms: _106  and  _107
REMARK   44  A    between atoms: _109  and  _111
REMARK   45  A    between atoms: _111  and  _112
REMARK   46  A    between atoms: _114  and  _116
REMARK   47  A    between atoms: _116  and  _117
REMARK   48  A    between atoms: _119  and  _121
REMARK   49  A    between atoms: _121  and  _122
REMARK   50  A    between atoms: _124  and  _126
REMARK   51  A    between atoms: _126  and  _127
REMARK   52  A    between atoms: _126  and  _129
REMARK   53  A    between atoms: _129  and  _130
REMARK   54  A    between atoms: _130  and  _131
REMARK   55  A    between atoms: _131  and  _132
REMARK   56  A    between atoms: _141  and  _143
REMARK   57  A    between atoms: _143  and  _144
REMARK   58  A    between atoms: _143  and  _146
REMARK   59  A    between atoms: _146  and  _147
REMARK   60  A    between atoms: _150  and  _152
REMARK   61  A    between atoms: _152  and  _153
REMARK   62  A    between atoms: _156  and  _158
REMARK   63  A    between atoms: _158  and  _159
REMARK   64  A    between atoms: _158  and  _161
REMARK   65  A    between atoms: _161  and  _162
REMARK   66  A    between atoms: _165  and  _167
REMARK   67  A    between atoms: _167  and  _168
REMARK   68  A    between atoms: _167  and  _170
REMARK   69  A    between atoms: _170  and  _171
REMARK   70  A    between atoms: _174  and  _176
REMARK   71  A    between atoms: _176  and  _177
REMARK   72  A    between atoms: _176  and  _179
REMARK   73  A    between atoms: _179  and  _180
REMARK   74  A    between atoms: _185  and  _187
REMARK   75  A    between atoms: _187  and  _188
REMARK   76  A    between atoms: _187  and  _190
REMARK   77  A    between atoms: _190  and  _191
REMARK   78  A    between atoms: _194  and  _196
REMARK   79  A    between atoms: _196  and  _197
REMARK   80  A    between atoms: _196  and  _199
REMARK   81  A    between atoms: _199  and  _200
REMARK   82  A    between atoms: _203  and  _205
REMARK   83  A    between atoms: _205  and  _206
REMARK   84  A    between atoms: _205  and  _208
REMARK   85  A    between atoms: _208  and  _209
REMARK   86  A    between atoms: _214  and  _215
REMARK   87  A    between atoms: _217  and  _219
REMARK   88  A    between atoms: _219  and  _220
REMARK   89  A    between atoms: _219  and  _222
REMARK   90  A    between atoms: _222  and  _223
REMARK   91  A    between atoms: _228  and  _229
REMARK   92  A    between atoms: _231  and  _233
REMARK   93  A    between atoms: _233  and  _234
REMARK   94  A    between atoms: _233  and  _236
REMARK   95  A    between atoms: _236  and  _237
REMARK   96  A    between atoms: _237  and  _238
REMARK   97  A    between atoms: _243  and  _245
REMARK   98  A    between atoms: _245  and  _246
REMARK   99  A    between atoms: _245  and  _248
REMARK  100  A    between atoms: _248  and  _249
REMARK  101  A    between atoms: _249  and  _250
REMARK  102  A    between atoms: _250  and  _251
REMARK  103  A    between atoms: _260  and  _262
REMARK  104  A    between atoms: _262  and  _263
REMARK  105  A    between atoms: _262  and  _265
REMARK  106  A    between atoms: _265  and  _266
REMARK  107  A    between atoms: _271  and  _272
REMARK  108  A    between atoms: _274  and  _276
REMARK  109  A    between atoms: _276  and  _277
REMARK  110  A    between atoms: _276  and  _279
REMARK  111  A    between atoms: _279  and  _280
REMARK  112  A    between atoms: _283  and  _285
REMARK  113  A    between atoms: _285  and  _286
REMARK  114  A    between atoms: _285  and  _288
REMARK  115  A    between atoms: _288  and  _289
REMARK  116  A    between atoms: _299  and  _301
REMARK  117  A    between atoms: _301  and  _302
REMARK  118  A    between atoms: _301  and  _304
REMARK  119  A    between atoms: _304  and  _305
REMARK  120  A    between atoms: _308  and  _310
REMARK  121  A    between atoms: _310  and  _311
REMARK  122  A    between atoms: _310  and  _313
REMARK  123  A    between atoms: _313  and  _314
REMARK  124  A    between atoms: _314  and  _315
REMARK  125  A    between atoms: _318  and  _320
REMARK  126  A    between atoms: _320  and  _321
REMARK  127  A    between atoms: _320  and  _323
REMARK  128  A    between atoms: _323  and  _324
REMARK  129  A    between atoms: _326  and  _328
REMARK  130  A    between atoms: _328  and  _329
REMARK  131  A    between atoms: _328  and  _331
REMARK  132  A    between atoms: _331  and  _332
REMARK  133  A    between atoms: _335  and  _337
REMARK  134  A    between atoms: _337  and  _338
REMARK  135  A    between atoms: _340  and  _342
REMARK  136  A    between atoms: _342  and  _343
REMARK  137  A    between atoms: _342  and  _345
REMARK  138  A    between atoms: _345  and  _346
REMARK  139  A    between atoms: _356  and  _358
REMARK  140  A    between atoms: _358  and  _359
REMARK  141  A    between atoms: _358  and  _361
REMARK  142  A    between atoms: _361  and  _362
REMARK  143  A    between atoms: _362  and  _363
REMARK  144  A    between atoms: _363  and  _364
REMARK  145  A    between atoms: _373  and  _375
REMARK  146  A    between atoms: _375  and  _376
REMARK  147  A    between atoms: _375  and  _378
REMARK  148  A    between atoms: _378  and  _379
REMARK  149  A    between atoms: _379  and  _380
REMARK  150  A    between atoms: _380  and  _381
REMARK  151  A    between atoms: _381  and  _382
REMARK  152  A    between atoms: _386  and  _388
REMARK  153  A    between atoms: _388  and  _389
REMARK  154  A    between atoms: _388  and  _391
REMARK  155  A    between atoms: _391  and  _392
REMARK  156  A    between atoms: _392  and  _393
REMARK  157  A    between atoms: _398  and  _400
REMARK  158  A    between atoms: _400  and  _401
REMARK  159  A    between atoms: _400  and  _403
REMARK  160  A    between atoms: _403  and  _404
REMARK                            x       y       z     vdW  Elec       q    Type
REMARK                         _______ _______ _______ _____ _____    ______ ____
ROOT
ATOM      1  O   HOH     1      17.952   6.457  17.171  0.00  0.00    +0.000 OA
ENDROOT
TORSDOF 0
REMARK  Name = ../refined-set-2016/3ujd/3ujd_pocket.pdb
REMARK  160 active torsions:
REMARK  status: ('A' for Active; 'I' for Inactive)
REMARK    1  A    between atoms: _1  and  _3
REMARK    2  A    between atoms: _3  and  _4
REMARK    3  A    between atoms: _3  and  _6
REMARK    4  A    between atoms: _6  and  _7
REMARK    5  A    between atoms: _7  and  _8
REMARK    6  A    between atoms: _13  and  _15
REMARK    7  A    between atoms: _15  and  _16
REMARK    8  A    between atoms: _15  and  _18
REMARK    9  A    between atoms: _18  and  _19
REMARK   10  A    between atoms: _25  and  _27
REMARK   11  A    between atoms: _27  and  _28
REMARK   12  A    between atoms: _30  and  _32
REMARK   13  A    between atoms: _32  and  _33
REMARK   14  A    between atoms: _32  and  _35
REMARK   15  A    between atoms: _35  and  _36
REMARK   16  A    between atoms: _41  and  _42
REMARK   17  A    between atoms: _44  and  _46
REMARK   18  A    between atoms: _46  and  _47
REMARK   19  A    between atoms: _46  and  _49
REMARK   20  A    between atoms: _49  and  _50
REMARK   21  A    between atoms: _53  and  _55
REMARK   22  A    between atoms: _55  and  _56
REMARK   23  A    between atoms: _55  and  _58
REMARK   24  A    between atoms: _58  and  _59
REMARK   25  A    between atoms: _65  and  _67
REMARK   26  A    between atoms: _67  and  _68
REMARK   27  A    between atoms: _67  and  _70
REMARK   28  A    between atoms: _70  and  _71
REMARK   29  A    between atoms: _76  and  _77
REMARK   30  A    between atoms: _79  and  _81
REMARK   31  A    between atoms: _81  and  _82
REMARK   32  A    between atoms: _81  and  _84
REMARK   33  A    between atoms: _84  and  _85
REMARK   34  A    between atoms: _88  and  _90
REMARK   35  A    between atoms: _90  and  _91
REMARK   36  A    between atoms: _90  and  _93
REMARK   37  A    between atoms: _93  and  _94
REMARK   38  A    between atoms: _96  and  _98
REMARK   39  A    between atoms: _98  and  _99
REMARK   40  A    between atoms: _98  and  _101
REMARK   41  A    between atoms: _101  and  _102
REMARK   42  A    between atoms: _104  and  _106
REMARK   43  A    between atoms: _106  and  _107
REMARK   44  A    between atoms: _109  and  _111
REMARK   45  A    between atoms: _111  and  _112
REMARK   46  A    between atoms: _114  and  _116
REMARK   47  A    between atoms: _116  and  _117
REMARK   48  A    between atoms: _119  and  _121
REMARK   49  A    between atoms: _121  and  _122
REMARK   50  A    between atoms: _124  and  _126
REMARK   51  A    between atoms: _126  and  _127
REMARK   52  A    between atoms: _126  and  _129
REMARK   53  A    between atoms: _129  and  _130
REMARK   54  A    between atoms: _130  and  _131
REMARK   55  A    between atoms: _131  and  _132
REMARK   56  A    between atoms: _141  and  _143
REMARK   57  A    between atoms: _143  and  _144
REMARK   58  A    between atoms: _143  and  _146
REMARK   59  A    between atoms: _146  and  _147
REMARK   60  A    between atoms: _150  and  _152
REMARK   61  A    between atoms: _152  and  _153
REMARK   62  A    between atoms: _156  and  _158
REMARK   63  A    between atoms: _158  and  _159
REMARK   64  A    between atoms: _158  and  _161
REMARK   65  A    between atoms: _161  and  _162
REMARK   66  A    between atoms: _165  and  _167
REMARK   67  A    between atoms: _167  and  _168
REMARK   68  A    between atoms: _167  and  _170
REMARK   69  A    between atoms: _170  and  _171
REMARK   70  A    between atoms: _174  and  _176
REMARK   71  A    between atoms: _176  and  _177
REMARK   72  A    between atoms: _176  and  _179
REMARK   73  A    between atoms: _179  and  _180
REMARK   74  A    between atoms: _185  and  _187
REMARK   75  A    between atoms: _187  and  _188
REMARK   76  A    between atoms: _187  and  _190
REMARK   77  A    between atoms: _190  and  _191
REMARK   78  A    between atoms: _194  and  _196
REMARK   79  A    between atoms: _196  and  _197
REMARK   80  A    between atoms: _196  and  _199
REMARK   81  A    between atoms: _199  and  _200
REMARK   82  A    between atoms: _203  and  _205
REMARK   83  A    between atoms: _205  and  _206
REMARK   84  A    between atoms: _205  and  _208
REMARK   85  A    between atoms: _208  and  _209
REMARK   86  A    between atoms: _214  and  _215
REMARK   87  A    between atoms: _217  and  _219
REMARK   88  A    between atoms: _219  and  _220
REMARK   89  A    between atoms: _219  and  _222
REMARK   90  A    between atoms: _222  and  _223
REMARK   91  A    between atoms: _228  and  _229
REMARK   92  A    between atoms: _231  and  _233
REMARK   93  A    between atoms: _233  and  _234
REMARK   94  A    between atoms: _233  and  _236
REMARK   95  A    between atoms: _236  and  _237
REMARK   96  A    between atoms: _237  and  _238
REMARK   97  A    between atoms: _243  and  _245
REMARK   98  A    between atoms: _245  and  _246
REMARK   99  A    between atoms: _245  and  _248
REMARK  100  A    between atoms: _248  and  _249
REMARK  101  A    between atoms: _249  and  _250
REMARK  102  A    between atoms: _250  and  _251
REMARK  103  A    between atoms: _260  and  _262
REMARK  104  A    between atoms: _262  and  _263
REMARK  105  A    between atoms: _262  and  _265
REMARK  106  A    between atoms: _265  and  _266
REMARK  107  A    between atoms: _271  and  _272
REMARK  108  A    between atoms: _274  and  _276
REMARK  109  A    between atoms: _276  and  _277
REMARK  110  A    between atoms: _276  and  _279
REMARK  111  A    between atoms: _279  and  _280
REMARK  112  A    between atoms: _283  and  _285
REMARK  113  A    between atoms: _285  and  _286
REMARK  114  A    between atoms: _285  and  _288
REMARK  115  A    between atoms: _288  and  _289
REMARK  116  A    between atoms: _299  and  _301
REMARK  117  A    between atoms: _301  and  _302
REMARK  118  A    between atoms: _301  and  _304
REMARK  119  A    between atoms: _304  and  _305
REMARK  120  A    between atoms: _308  and  _310
REMARK  121  A    between atoms: _310  and  _311
REMARK  122  A    between atoms: _310  and  _313
REMARK  123  A    between atoms: _313  and  _314
REMARK  124  A    between atoms: _314  and  _315
REMARK  125  A    between atoms: _318  and  _320
REMARK  126  A    between atoms: _320  and  _321
REMARK  127  A    between atoms: _320  and  _323
REMARK  128  A    between atoms: _323  and  _324
REMARK  129  A    between atoms: _326  and  _328
REMARK  130  A    between atoms: _328  and  _329
REMARK  131  A    between atoms: _328  and  _331
REMARK  132  A    between atoms: _331  and  _332
REMARK  133  A    between atoms: _335  and  _337
REMARK  134  A    between atoms: _337  and  _338
REMARK  135  A    between atoms: _340  and  _342
REMARK  136  A    between atoms: _342  and  _343
REMARK  137  A    between atoms: _342  and  _345
REMARK  138  A    between atoms: _345  and  _346
REMARK  139  A    between atoms: _356  and  _358
REMARK  140  A    between atoms: _358  and  _359
REMARK  141  A    between atoms: _358  and  _361
REMARK  142  A    between atoms: _361  and  _362
REMARK  143  A    between atoms: _362  and  _363
REMARK  144  A    between atoms: _363  and  _364
REMARK  145  A    between atoms: _373  and  _375
REMARK  146  A    between atoms: _375  and  _376
REMARK  147  A    between atoms: _375  and  _378
REMARK  148  A    between atoms: _378  and  _379
REMARK  149  A    between atoms: _379  and  _380
REMARK  150  A    between atoms: _380  and  _381
REMARK  151  A    between atoms: _381  and  _382
REMARK  152  A    between atoms: _386  and  _388
REMARK  153  A    between atoms: _388  and  _389
REMARK  154  A    between atoms: _388  and  _391
REMARK  155  A    between atoms: _391  and  _392
REMARK  156  A    between atoms: _392  and  _393
REMARK  157  A    between atoms: _398  and  _400
REMARK  158  A    between atoms: _400  and  _401
REMARK  159  A    between atoms: _400  and  _403
REMARK  160  A    between atoms: _403  and  _404
REMARK                            x       y       z     vdW  Elec       q    Type
REMARK                         _______ _______ _______ _____ _____    ______ ____
ROOT
ATOM      1  O   HOH     1      12.806   6.400  17.290  0.00  0.00    +0.000 OA
ENDROOT
TORSDOF 0
REMARK  Name = ../refined-set-2016/3ujd/3ujd_pocket.pdb
REMARK  160 active torsions:
REMARK  status: ('A' for Active; 'I' for Inactive)
REMARK    1  A    between atoms: _1  and  _3
REMARK    2  A    between atoms: _3  and  _4
REMARK    3  A    between atoms: _3  and  _6
REMARK    4  A    between atoms: _6  and  _7
REMARK    5  A    between atoms: _7  and  _8
REMARK    6  A    between atoms: _13  and  _15
REMARK    7  A    between atoms: _15  and  _16
REMARK    8  A    between atoms: _15  and  _18
REMARK    9  A    between atoms: _18  and  _19
REMARK   10  A    between atoms: _25  and  _27
REMARK   11  A    between atoms: _27  and  _28
REMARK   12  A    between atoms: _30  and  _32
REMARK   13  A    between atoms: _32  and  _33
REMARK   14  A    between atoms: _32  and  _35
REMARK   15  A    between atoms: _35  and  _36
REMARK   16  A    between atoms: _41  and  _42
REMARK   17  A    between atoms: _44  and  _46
REMARK   18  A    between atoms: _46  and  _47
REMARK   19  A    between atoms: _46  and  _49
REMARK   20  A    between atoms: _49  and  _50
REMARK   21  A    between atoms: _53  and  _55
REMARK   22  A    between atoms: _55  and  _56
REMARK   23  A    between atoms: _55  and  _58
REMARK   24  A    between atoms: _58  and  _59
REMARK   25  A    between atoms: _65  and  _67
REMARK   26  A    between atoms: _67  and  _68
REMARK   27  A    between atoms: _67  and  _70
REMARK   28  A    between atoms: _70  and  _71
REMARK   29  A    between atoms: _76  and  _77
REMARK   30  A    between atoms: _79  and  _81
REMARK   31  A    between atoms: _81  and  _82
REMARK   32  A    between atoms: _81  and  _84
REMARK   33  A    between atoms: _84  and  _85
REMARK   34  A    between atoms: _88  and  _90
REMARK   35  A    between atoms: _90  and  _91
REMARK   36  A    between atoms: _90  and  _93
REMARK   37  A    between atoms: _93  and  _94
REMARK   38  A    between atoms: _96  and  _98
REMARK   39  A    between atoms: _98  and  _99
REMARK   40  A    between atoms: _98  and  _101
REMARK   41  A    between atoms: _101  and  _102
REMARK   42  A    between atoms: _104  and  _106
REMARK   43  A    between atoms: _106  and  _107
REMARK   44  A    between atoms: _109  and  _111
REMARK   45  A    between atoms: _111  and  _112
REMARK   46  A    between atoms: _114  and  _116
REMARK   47  A    between atoms: _116  and  _117
REMARK   48  A    between atoms: _119  and  _121
REMARK   49  A    between atoms: _121  and  _122
REMARK   50  A    between atoms: _124  and  _126
REMARK   51  A    between atoms: _126  and  _127
REMARK   52  A    between atoms: _126  and  _129
REMARK   53  A    between atoms: _129  and  _130
REMARK   54  A    between atoms: _130  and  _131
REMARK   55  A    between atoms: _131  and  _132
REMARK   56  A    between atoms: _141  and  _143
REMARK   57  A    between atoms: _143  and  _144
REMARK   58  A    between atoms: _143  and  _146
REMARK   59  A    between atoms: _146  and  _147
REMARK   60  A    between atoms: _150  and  _152
REMARK   61  A    between atoms: _152  and  _153
REMARK   62  A    between atoms: _156  and  _158
REMARK   63  A    between atoms: _158  and  _159
REMARK   64  A    between atoms: _158  and  _161
REMARK   65  A    between atoms: _161  and  _162
REMARK   66  A    between atoms: _165  and  _167
REMARK   67  A    between atoms: _167  and  _168
REMARK   68  A    between atoms: _167  and  _170
REMARK   69  A    between atoms: _170  and  _171
REMARK   70  A    between atoms: _174  and  _176
REMARK   71  A    between atoms: _176  and  _177
REMARK   72  A    between atoms: _176  and  _179
REMARK   73  A    between atoms: _179  and  _180
REMARK   74  A    between atoms: _185  and  _187
REMARK   75  A    between atoms: _187  and  _188
REMARK   76  A    between atoms: _187  and  _190
REMARK   77  A    between atoms: _190  and  _191
REMARK   78  A    between atoms: _194  and  _196
REMARK   79  A    between atoms: _196  and  _197
REMARK   80  A    between atoms: _196  and  _199
REMARK   81  A    between atoms: _199  and  _200
REMARK   82  A    between atoms: _203  and  _205
REMARK   83  A    between atoms: _205  and  _206
REMARK   84  A    between atoms: _205  and  _208
REMARK   85  A    between atoms: _208  and  _209
REMARK   86  A    between atoms: _214  and  _215
REMARK   87  A    between atoms: _217  and  _219
REMARK   88  A    between atoms: _219  and  _220
REMARK   89  A    between atoms: _219  and  _222
REMARK   90  A    between atoms: _222  and  _223
REMARK   91  A    between atoms: _228  and  _229
REMARK   92  A    between atoms: _231  and  _233
REMARK   93  A    between atoms: _233  and  _234
REMARK   94  A    between atoms: _233  and  _236
REMARK   95  A    between atoms: _236  and  _237
REMARK   96  A    between atoms: _237  and  _238
REMARK   97  A    between atoms: _243  and  _245
REMARK   98  A    between atoms: _245  and  _246
REMARK   99  A    between atoms: _245  and  _248
REMARK  100  A    between atoms: _248  and  _249
REMARK  101  A    between atoms: _249  and  _250
REMARK  102  A    between atoms: _250  and  _251
REMARK  103  A    between atoms: _260  and  _262
REMARK  104  A    between atoms: _262  and  _263
REMARK  105  A    between atoms: _262  and  _265
REMARK  106  A    between atoms: _265  and  _266
REMARK  107  A    between atoms: _271  and  _272
REMARK  108  A    between atoms: _274  and  _276
REMARK  109  A    between atoms: _276  and  _277
REMARK  110  A    between atoms: _276  and  _279
REMARK  111  A    between atoms: _279  and  _280
REMARK  112  A    between atoms: _283  and  _285
REMARK  113  A    between atoms: _285  and  _286
REMARK  114  A    between atoms: _285  and  _288
REMARK  115  A    between atoms: _288  and  _289
REMARK  116  A    between atoms: _299  and  _301
REMARK  117  A    between atoms: _301  and  _302
REMARK  118  A    between atoms: _301  and  _304
REMARK  119  A    between atoms: _304  and  _305
REMARK  120  A    between atoms: _308  and  _310
REMARK  121  A    between atoms: _310  and  _311
REMARK  122  A    between atoms: _310  and  _313
REMARK  123  A    between atoms: _313  and  _314
REMARK  124  A    between atoms: _314  and  _315
REMARK  125  A    between atoms: _318  and  _320
REMARK  126  A    between atoms: _320  and  _321
REMARK  127  A    between atoms: _320  and  _323
REMARK  128  A    between atoms: _323  and  _324
REMARK  129  A    between atoms: _326  and  _328
REMARK  130  A    between atoms: _328  and  _329
REMARK  131  A    between atoms: _328  and  _331
REMARK  132  A    between atoms: _331  and  _332
REMARK  133  A    between atoms: _335  and  _337
REMARK  134  A    between atoms: _337  and  _338
REMARK  135  A    between atoms: _340  and  _342
REMARK  136  A    between atoms: _342  and  _343
REMARK  137  A    between atoms: _342  and  _345
REMARK  138  A    between atoms: _345  and  _346
REMARK  139  A    between atoms: _356  and  _358
REMARK  140  A    between atoms: _358  and  _359
REMARK  141  A    between atoms: _358  and  _361
REMARK  142  A    between atoms: _361  and  _362
REMARK  143  A    between atoms: _362  and  _363
REMARK  144  A    between atoms: _363  and  _364
REMARK  145  A    between atoms: _373  and  _375
REMARK  146  A    between atoms: _375  and  _376
REMARK  147  A    between atoms: _375  and  _378
REMARK  148  A    between atoms: _378  and  _379
REMARK  149  A    between atoms: _379  and  _380
REMARK  150  A    between atoms: _380  and  _381
REMARK  151  A    between atoms: _381  and  _382
REMARK  152  A    between atoms: _386  and  _388
REMARK  153  A    between atoms: _388  and  _389
REMARK  154  A    between atoms: _388  and  _391
REMARK  155  A    between atoms: _391  and  _392
REMARK  156  A    between atoms: _392  and  _393
REMARK  157  A    between atoms: _398  and  _400
REMARK  158  A    between atoms: _400  and  _401
REMARK  159  A    between atoms: _400  and  _403
REMARK  160  A    between atoms: _403  and  _404
REMARK                            x       y       z     vdW  Elec       q    Type
REMARK                         _______ _______ _______ _____ _____    ______ ____
ROOT
ATOM      1  O   HOH     1      11.779   2.820  18.953  0.00  0.00    +0.000 OA
ENDROOT
TORSDOF 0
REMARK  Name = ../refined-set-2016/3ujd/3ujd_pocket.pdb
REMARK  160 active torsions:
REMARK  status: ('A' for Active; 'I' for Inactive)
REMARK    1  A    between atoms: _1  and  _3
REMARK    2  A    between atoms: _3  and  _4
REMARK    3  A    between atoms: _3  and  _6
REMARK    4  A    between atoms: _6  and  _7
REMARK    5  A    between atoms: _7  and  _8
REMARK    6  A    between atoms: _13  and  _15
REMARK    7  A    between atoms: _15  and  _16
REMARK    8  A    between atoms: _15  and  _18
REMARK    9  A    between atoms: _18  and  _19
REMARK   10  A    between atoms: _25  and  _27
REMARK   11  A    between atoms: _27  and  _28
REMARK   12  A    between atoms: _30  and  _32
REMARK   13  A    between atoms: _32  and  _33
REMARK   14  A    between atoms: _32  and  _35
REMARK   15  A    between atoms: _35  and  _36
REMARK   16  A    between atoms: _41  and  _42
REMARK   17  A    between atoms: _44  and  _46
REMARK   18  A    between atoms: _46  and  _47
REMARK   19  A    between atoms: _46  and  _49
REMARK   20  A    between atoms: _49  and  _50
REMARK   21  A    between atoms: _53  and  _55
REMARK   22  A    between atoms: _55  and  _56
REMARK   23  A    between atoms: _55  and  _58
REMARK   24  A    between atoms: _58  and  _59
REMARK   25  A    between atoms: _65  and  _67
REMARK   26  A    between atoms: _67  and  _68
REMARK   27  A    between atoms: _67  and  _70
REMARK   28  A    between atoms: _70  and  _71
REMARK   29  A    between atoms: _76  and  _77
REMARK   30  A    between atoms: _79  and  _81
REMARK   31  A    between atoms: _81  and  _82
REMARK   32  A    between atoms: _81  and  _84
REMARK   33  A    between atoms: _84  and  _85
REMARK   34  A    between atoms: _88  and  _90
REMARK   35  A    between atoms: _90  and  _91
REMARK   36  A    between atoms: _90  and  _93
REMARK   37  A    between atoms: _93  and  _94
REMARK   38  A    between atoms: _96  and  _98
REMARK   39  A    between atoms: _98  and  _99
REMARK   40  A    between atoms: _98  and  _101
REMARK   41  A    between atoms: _101  and  _102
REMARK   42  A    between atoms: _104  and  _106
REMARK   43  A    between atoms: _106  and  _107
REMARK   44  A    between atoms: _109  and  _111
REMARK   45  A    between atoms: _111  and  _112
REMARK   46  A    between atoms: _114  and  _116
REMARK   47  A    between atoms: _116  and  _117
REMARK   48  A    between atoms: _119  and  _121
REMARK   49  A    between atoms: _121  and  _122
REMARK   50  A    between atoms: _124  and  _126
REMARK   51  A    between atoms: _126  and  _127
REMARK   52  A    between atoms: _126  and  _129
REMARK   53  A    between atoms: _129  and  _130
REMARK   54  A    between atoms: _130  and  _131
REMARK   55  A    between atoms: _131  and  _132
REMARK   56  A    between atoms: _141  and  _143
REMARK   57  A    between atoms: _143  and  _144
REMARK   58  A    between atoms: _143  and  _146
REMARK   59  A    between atoms: _146  and  _147
REMARK   60  A    between atoms: _150  and  _152
REMARK   61  A    between atoms: _152  and  _153
REMARK   62  A    between atoms: _156  and  _158
REMARK   63  A    between atoms: _158  and  _159
REMARK   64  A    between atoms: _158  and  _161
REMARK   65  A    between atoms: _161  and  _162
REMARK   66  A    between atoms: _165  and  _167
REMARK   67  A    between atoms: _167  and  _168
REMARK   68  A    between atoms: _167  and  _170
REMARK   69  A    between atoms: _170  and  _171
REMARK   70  A    between atoms: _174  and  _176
REMARK   71  A    between atoms: _176  and  _177
REMARK   72  A    between atoms: _176  and  _179
REMARK   73  A    between atoms: _179  and  _180
REMARK   74  A    between atoms: _185  and  _187
REMARK   75  A    between atoms: _187  and  _188
REMARK   76  A    between atoms: _187  and  _190
REMARK   77  A    between atoms: _190  and  _191
REMARK   78  A    between atoms: _194  and  _196
REMARK   79  A    between atoms: _196  and  _197
REMARK   80  A    between atoms: _196  and  _199
REMARK   81  A    between atoms: _199  and  _200
REMARK   82  A    between atoms: _203  and  _205
REMARK   83  A    between atoms: _205  and  _206
REMARK   84  A    between atoms: _205  and  _208
REMARK   85  A    between atoms: _208  and  _209
REMARK   86  A    between atoms: _214  and  _215
REMARK   87  A    between atoms: _217  and  _219
REMARK   88  A    between atoms: _219  and  _220
REMARK   89  A    between atoms: _219  and  _222
REMARK   90  A    between atoms: _222  and  _223
REMARK   91  A    between atoms: _228  and  _229
REMARK   92  A    between atoms: _231  and  _233
REMARK   93  A    between atoms: _233  and  _234
REMARK   94  A    between atoms: _233  and  _236
REMARK   95  A    between atoms: _236  and  _237
REMARK   96  A    between atoms: _237  and  _238
REMARK   97  A    between atoms: _243  and  _245
REMARK   98  A    between atoms: _245  and  _246
REMARK   99  A    between atoms: _245  and  _248
REMARK  100  A    between atoms: _248  and  _249
REMARK  101  A    between atoms: _249  and  _250
REMARK  102  A    between atoms: _250  and  _251
REMARK  103  A    between atoms: _260  and  _262
REMARK  104  A    between atoms: _262  and  _263
REMARK  105  A    between atoms: _262  and  _265
REMARK  106  A    between atoms: _265  and  _266
REMARK  107  A    between atoms: _271  and  _272
REMARK  108  A    between atoms: _274  and  _276
REMARK  109  A    between atoms: _276  and  _277
REMARK  110  A    between atoms: _276  and  _279
REMARK  111  A    between atoms: _279  and  _280
REMARK  112  A    between atoms: _283  and  _285
REMARK  113  A    between atoms: _285  and  _286
REMARK  114  A    between atoms: _285  and  _288
REMARK  115  A    between atoms: _288  and  _289
REMARK  116  A    between atoms: _299  and  _301
REMARK  117  A    between atoms: _301  and  _302
REMARK  118  A    between atoms: _301  and  _304
REMARK  119  A    between atoms: _304  and  _305
REMARK  120  A    between atoms: _308  and  _310
REMARK  121  A    between atoms: _310  and  _311
REMARK  122  A    between atoms: _310  and  _313
REMARK  123  A    between atoms: _313  and  _314
REMARK  124  A    between atoms: _314  and  _315
REMARK  125  A    between atoms: _318  and  _320
REMARK  126  A    between atoms: _320  and  _321
REMARK  127  A    between atoms: _320  and  _323
REMARK  128  A    between atoms: _323  and  _324
REMARK  129  A    between atoms: _326  and  _328
REMARK  130  A    between atoms: _328  and  _329
REMARK  131  A    between atoms: _328  and  _331
REMARK  132  A    between atoms: _331  and  _332
REMARK  133  A    between atoms: _335  and  _337
REMARK  134  A    between atoms: _337  and  _338
REMARK  135  A    between atoms: _340  and  _342
REMARK  136  A    between atoms: _342  and  _343
REMARK  137  A    between atoms: _342  and  _345
REMARK  138  A    between atoms: _345  and  _346
REMARK  139  A    between atoms: _356  and  _358
REMARK  140  A    between atoms: _358  and  _359
REMARK  141  A    between atoms: _358  and  _361
REMARK  142  A    between atoms: _361  and  _362
REMARK  143  A    between atoms: _362  and  _363
REMARK  144  A    between atoms: _363  and  _364
REMARK  145  A    between atoms: _373  and  _375
REMARK  146  A    between atoms: _375  and  _376
REMARK  147  A    between atoms: _375  and  _378
REMARK  148  A    between atoms: _378  and  _379
REMARK  149  A    between atoms: _379  and  _380
REMARK  150  A    between atoms: _380  and  _381
REMARK  151  A    between atoms: _381  and  _382
REMARK  152  A    between atoms: _386  and  _388
REMARK  153  A    between atoms: _388  and  _389
REMARK  154  A    between atoms: _388  and  _391
REMARK  155  A    between atoms: _391  and  _392
REMARK  156  A    between atoms: _392  and  _393
REMARK  157  A    between atoms: _398  and  _400
REMARK  158  A    between atoms: _400  and  _401
REMARK  159  A    between atoms: _400  and  _403
REMARK  160  A    between atoms: _403  and  _404
REMARK                            x       y       z     vdW  Elec       q    Type
REMARK                         _______ _______ _______ _____ _____    ______ ____
ROOT
ATOM      1  O   HOH     1      20.051   4.711  18.348  0.00  0.00    +0.000 OA
ENDROOT
TORSDOF 0
REMARK  Name = ../refined-set-2016/3ujd/3ujd_pocket.pdb
REMARK  160 active torsions:
REMARK  status: ('A' for Active; 'I' for Inactive)
REMARK    1  A    between atoms: _1  and  _3
REMARK    2  A    between atoms: _3  and  _4
REMARK    3  A    between atoms: _3  and  _6
REMARK    4  A    between atoms: _6  and  _7
REMARK    5  A    between atoms: _7  and  _8
REMARK    6  A    between atoms: _13  and  _15
REMARK    7  A    between atoms: _15  and  _16
REMARK    8  A    between atoms: _15  and  _18
REMARK    9  A    between atoms: _18  and  _19
REMARK   10  A    between atoms: _25  and  _27
REMARK   11  A    between atoms: _27  and  _28
REMARK   12  A    between atoms: _30  and  _32
REMARK   13  A    between atoms: _32  and  _33
REMARK   14  A    between atoms: _32  and  _35
REMARK   15  A    between atoms: _35  and  _36
REMARK   16  A    between atoms: _41  and  _42
REMARK   17  A    between atoms: _44  and  _46
REMARK   18  A    between atoms: _46  and  _47
REMARK   19  A    between atoms: _46  and  _49
REMARK   20  A    between atoms: _49  and  _50
REMARK   21  A    between atoms: _53  and  _55
REMARK   22  A    between atoms: _55  and  _56
REMARK   23  A    between atoms: _55  and  _58
REMARK   24  A    between atoms: _58  and  _59
REMARK   25  A    between atoms: _65  and  _67
REMARK   26  A    between atoms: _67  and  _68
REMARK   27  A    between atoms: _67  and  _70
REMARK   28  A    between atoms: _70  and  _71
REMARK   29  A    between atoms: _76  and  _77
REMARK   30  A    between atoms: _79  and  _81
REMARK   31  A    between atoms: _81  and  _82
REMARK   32  A    between atoms: _81  and  _84
REMARK   33  A    between atoms: _84  and  _85
REMARK   34  A    between atoms: _88  and  _90
REMARK   35  A    between atoms: _90  and  _91
REMARK   36  A    between atoms: _90  and  _93
REMARK   37  A    between atoms: _93  and  _94
REMARK   38  A    between atoms: _96  and  _98
REMARK   39  A    between atoms: _98  and  _99
REMARK   40  A    between atoms: _98  and  _101
REMARK   41  A    between atoms: _101  and  _102
REMARK   42  A    between atoms: _104  and  _106
REMARK   43  A    between atoms: _106  and  _107
REMARK   44  A    between atoms: _109  and  _111
REMARK   45  A    between atoms: _111  and  _112
REMARK   46  A    between atoms: _114  and  _116
REMARK   47  A    between atoms: _116  and  _117
REMARK   48  A    between atoms: _119  and  _121
REMARK   49  A    between atoms: _121  and  _122
REMARK   50  A    between atoms: _124  and  _126
REMARK   51  A    between atoms: _126  and  _127
REMARK   52  A    between atoms: _126  and  _129
REMARK   53  A    between atoms: _129  and  _130
REMARK   54  A    between atoms: _130  and  _131
REMARK   55  A    between atoms: _131  and  _132
REMARK   56  A    between atoms: _141  and  _143
REMARK   57  A    between atoms: _143  and  _144
REMARK   58  A    between atoms: _143  and  _146
REMARK   59  A    between atoms: _146  and  _147
REMARK   60  A    between atoms: _150  and  _152
REMARK   61  A    between atoms: _152  and  _153
REMARK   62  A    between atoms: _156  and  _158
REMARK   63  A    between atoms: _158  and  _159
REMARK   64  A    between atoms: _158  and  _161
REMARK   65  A    between atoms: _161  and  _162
REMARK   66  A    between atoms: _165  and  _167
REMARK   67  A    between atoms: _167  and  _168
REMARK   68  A    between atoms: _167  and  _170
REMARK   69  A    between atoms: _170  and  _171
REMARK   70  A    between atoms: _174  and  _176
REMARK   71  A    between atoms: _176  and  _177
REMARK   72  A    between atoms: _176  and  _179
REMARK   73  A    between atoms: _179  and  _180
REMARK   74  A    between atoms: _185  and  _187
REMARK   75  A    between atoms: _187  and  _188
REMARK   76  A    between atoms: _187  and  _190
REMARK   77  A    between atoms: _190  and  _191
REMARK   78  A    between atoms: _194  and  _196
REMARK   79  A    between atoms: _196  and  _197
REMARK   80  A    between atoms: _196  and  _199
REMARK   81  A    between atoms: _199  and  _200
REMARK   82  A    between atoms: _203  and  _205
REMARK   83  A    between atoms: _205  and  _206
REMARK   84  A    between atoms: _205  and  _208
REMARK   85  A    between atoms: _208  and  _209
REMARK   86  A    between atoms: _214  and  _215
REMARK   87  A    between atoms: _217  and  _219
REMARK   88  A    between atoms: _219  and  _220
REMARK   89  A    between atoms: _219  and  _222
REMARK   90  A    between atoms: _222  and  _223
REMARK   91  A    between atoms: _228  and  _229
REMARK   92  A    between atoms: _231  and  _233
REMARK   93  A    between atoms: _233  and  _234
REMARK   94  A    between atoms: _233  and  _236
REMARK   95  A    between atoms: _236  and  _237
REMARK   96  A    between atoms: _237  and  _238
REMARK   97  A    between atoms: _243  and  _245
REMARK   98  A    between atoms: _245  and  _246
REMARK   99  A    between atoms: _245  and  _248
REMARK  100  A    between atoms: _248  and  _249
REMARK  101  A    between atoms: _249  and  _250
REMARK  102  A    between atoms: _250  and  _251
REMARK  103  A    between atoms: _260  and  _262
REMARK  104  A    between atoms: _262  and  _263
REMARK  105  A    between atoms: _262  and  _265
REMARK  106  A    between atoms: _265  and  _266
REMARK  107  A    between atoms: _271  and  _272
REMARK  108  A    between atoms: _274  and  _276
REMARK  109  A    between atoms: _276  and  _277
REMARK  110  A    between atoms: _276  and  _279
REMARK  111  A    between atoms: _279  and  _280
REMARK  112  A    between atoms: _283  and  _285
REMARK  113  A    between atoms: _285  and  _286
REMARK  114  A    between atoms: _285  and  _288
REMARK  115  A    between atoms: _288  and  _289
REMARK  116  A    between atoms: _299  and  _301
REMARK  117  A    between atoms: _301  and  _302
REMARK  118  A    between atoms: _301  and  _304
REMARK  119  A    between atoms: _304  and  _305
REMARK  120  A    between atoms: _308  and  _310
REMARK  121  A    between atoms: _310  and  _311
REMARK  122  A    between atoms: _310  and  _313
REMARK  123  A    between atoms: _313  and  _314
REMARK  124  A    between atoms: _314  and  _315
REMARK  125  A    between atoms: _318  and  _320
REMARK  126  A    between atoms: _320  and  _321
REMARK  127  A    between atoms: _320  and  _323
REMARK  128  A    between atoms: _323  and  _324
REMARK  129  A    between atoms: _326  and  _328
REMARK  130  A    between atoms: _328  and  _329
REMARK  131  A    between atoms: _328  and  _331
REMARK  132  A    between atoms: _331  and  _332
REMARK  133  A    between atoms: _335  and  _337
REMARK  134  A    between atoms: _337  and  _338
REMARK  135  A    between atoms: _340  and  _342
REMARK  136  A    between atoms: _342  and  _343
REMARK  137  A    between atoms: _342  and  _345
REMARK  138  A    between atoms: _345  and  _346
REMARK  139  A    between atoms: _356  and  _358
REMARK  140  A    between atoms: _358  and  _359
REMARK  141  A    between atoms: _358  and  _361
REMARK  142  A    between atoms: _361  and  _362
REMARK  143  A    between atoms: _362  and  _363
REMARK  144  A    between atoms: _363  and  _364
REMARK  145  A    between atoms: _373  and  _375
REMARK  146  A    between atoms: _375  and  _376
REMARK  147  A    between atoms: _375  and  _378
REMARK  148  A    between atoms: _378  and  _379
REMARK  149  A    between atoms: _379  and  _380
REMARK  150  A    between atoms: _380  and  _381
REMARK  151  A    between atoms: _381  and  _382
REMARK  152  A    between atoms: _386  and  _388
REMARK  153  A    between atoms: _388  and  _389
REMARK  154  A    between atoms: _388  and  _391
REMARK  155  A    between atoms: _391  and  _392
REMARK  156  A    between atoms: _392  and  _393
REMARK  157  A    between atoms: _398  and  _400
REMARK  158  A    between atoms: _400  and  _401
REMARK  159  A    between atoms: _400  and  _403
REMARK  160  A    between atoms: _403  and  _404
REMARK                            x       y       z     vdW  Elec       q    Type
REMARK                         _______ _______ _______ _____ _____    ______ ____
ROOT
ATOM      1  O   HOH     1      13.704   3.112  23.433  0.00  0.00    +0.000 OA
ENDROOT
TORSDOF 0
REMARK  Name = ../refined-set-2016/3ujd/3ujd_pocket.pdb
REMARK  160 active torsions:
REMARK  status: ('A' for Active; 'I' for Inactive)
REMARK    1  A    between atoms: _1  and  _3
REMARK    2  A    between atoms: _3  and  _4
REMARK    3  A    between atoms: _3  and  _6
REMARK    4  A    between atoms: _6  and  _7
REMARK    5  A    between atoms: _7  and  _8
REMARK    6  A    between atoms: _13  and  _15
REMARK    7  A    between atoms: _15  and  _16
REMARK    8  A    between atoms: _15  and  _18
REMARK    9  A    between atoms: _18  and  _19
REMARK   10  A    between atoms: _25  and  _27
REMARK   11  A    between atoms: _27  and  _28
REMARK   12  A    between atoms: _30  and  _32
REMARK   13  A    between atoms: _32  and  _33
REMARK   14  A    between atoms: _32  and  _35
REMARK   15  A    between atoms: _35  and  _36
REMARK   16  A    between atoms: _41  and  _42
REMARK   17  A    between atoms: _44  and  _46
REMARK   18  A    between atoms: _46  and  _47
REMARK   19  A    between atoms: _46  and  _49
REMARK   20  A    between atoms: _49  and  _50
REMARK   21  A    between atoms: _53  and  _55
REMARK   22  A    between atoms: _55  and  _56
REMARK   23  A    between atoms: _55  and  _58
REMARK   24  A    between atoms: _58  and  _59
REMARK   25  A    between atoms: _65  and  _67
REMARK   26  A    between atoms: _67  and  _68
REMARK   27  A    between atoms: _67  and  _70
REMARK   28  A    between atoms: _70  and  _71
REMARK   29  A    between atoms: _76  and  _77
REMARK   30  A    between atoms: _79  and  _81
REMARK   31  A    between atoms: _81  and  _82
REMARK   32  A    between atoms: _81  and  _84
REMARK   33  A    between atoms: _84  and  _85
REMARK   34  A    between atoms: _88  and  _90
REMARK   35  A    between atoms: _90  and  _91
REMARK   36  A    between atoms: _90  and  _93
REMARK   37  A    between atoms: _93  and  _94
REMARK   38  A    between atoms: _96  and  _98
REMARK   39  A    between atoms: _98  and  _99
REMARK   40  A    between atoms: _98  and  _101
REMARK   41  A    between atoms: _101  and  _102
REMARK   42  A    between atoms: _104  and  _106
REMARK   43  A    between atoms: _106  and  _107
REMARK   44  A    between atoms: _109  and  _111
REMARK   45  A    between atoms: _111  and  _112
REMARK   46  A    between atoms: _114  and  _116
REMARK   47  A    between atoms: _116  and  _117
REMARK   48  A    between atoms: _119  and  _121
REMARK   49  A    between atoms: _121  and  _122
REMARK   50  A    between atoms: _124  and  _126
REMARK   51  A    between atoms: _126  and  _127
REMARK   52  A    between atoms: _126  and  _129
REMARK   53  A    between atoms: _129  and  _130
REMARK   54  A    between atoms: _130  and  _131
REMARK   55  A    between atoms: _131  and  _132
REMARK   56  A    between atoms: _141  and  _143
REMARK   57  A    between atoms: _143  and  _144
REMARK   58  A    between atoms: _143  and  _146
REMARK   59  A    between atoms: _146  and  _147
REMARK   60  A    between atoms: _150  and  _152
REMARK   61  A    between atoms: _152  and  _153
REMARK   62  A    between atoms: _156  and  _158
REMARK   63  A    between atoms: _158  and  _159
REMARK   64  A    between atoms: _158  and  _161
REMARK   65  A    between atoms: _161  and  _162
REMARK   66  A    between atoms: _165  and  _167
REMARK   67  A    between atoms: _167  and  _168
REMARK   68  A    between atoms: _167  and  _170
REMARK   69  A    between atoms: _170  and  _171
REMARK   70  A    between atoms: _174  and  _176
REMARK   71  A    between atoms: _176  and  _177
REMARK   72  A    between atoms: _176  and  _179
REMARK   73  A    between atoms: _179  and  _180
REMARK   74  A    between atoms: _185  and  _187
REMARK   75  A    between atoms: _187  and  _188
REMARK   76  A    between atoms: _187  and  _190
REMARK   77  A    between atoms: _190  and  _191
REMARK   78  A    between atoms: _194  and  _196
REMARK   79  A    between atoms: _196  and  _197
REMARK   80  A    between atoms: _196  and  _199
REMARK   81  A    between atoms: _199  and  _200
REMARK   82  A    between atoms: _203  and  _205
REMARK   83  A    between atoms: _205  and  _206
REMARK   84  A    between atoms: _205  and  _208
REMARK   85  A    between atoms: _208  and  _209
REMARK   86  A    between atoms: _214  and  _215
REMARK   87  A    between atoms: _217  and  _219
REMARK   88  A    between atoms: _219  and  _220
REMARK   89  A    between atoms: _219  and  _222
REMARK   90  A    between atoms: _222  and  _223
REMARK   91  A    between atoms: _228  and  _229
REMARK   92  A    between atoms: _231  and  _233
REMARK   93  A    between atoms: _233  and  _234
REMARK   94  A    between atoms: _233  and  _236
REMARK   95  A    between atoms: _236  and  _237
REMARK   96  A    between atoms: _237  and  _238
REMARK   97  A    between atoms: _243  and  _245
REMARK   98  A    between atoms: _245  and  _246
REMARK   99  A    between atoms: _245  and  _248
REMARK  100  A    between atoms: _248  and  _249
REMARK  101  A    between atoms: _249  and  _250
REMARK  102  A    between atoms: _250  and  _251
REMARK  103  A    between atoms: _260  and  _262
REMARK  104  A    between atoms: _262  and  _263
REMARK  105  A    between atoms: _262  and  _265
REMARK  106  A    between atoms: _265  and  _266
REMARK  107  A    between atoms: _271  and  _272
REMARK  108  A    between atoms: _274  and  _276
REMARK  109  A    between atoms: _276  and  _277
REMARK  110  A    between atoms: _276  and  _279
REMARK  111  A    between atoms: _279  and  _280
REMARK  112  A    between atoms: _283  and  _285
REMARK  113  A    between atoms: _285  and  _286
REMARK  114  A    between atoms: _285  and  _288
REMARK  115  A    between atoms: _288  and  _289
REMARK  116  A    between atoms: _299  and  _301
REMARK  117  A    between atoms: _301  and  _302
REMARK  118  A    between atoms: _301  and  _304
REMARK  119  A    between atoms: _304  and  _305
REMARK  120  A    between atoms: _308  and  _310
REMARK  121  A    between atoms: _310  and  _311
REMARK  122  A    between atoms: _310  and  _313
REMARK  123  A    between atoms: _313  and  _314
REMARK  124  A    between atoms: _314  and  _315
REMARK  125  A    between atoms: _318  and  _320
REMARK  126  A    between atoms: _320  and  _321
REMARK  127  A    between atoms: _320  and  _323
REMARK  128  A    between atoms: _323  and  _324
REMARK  129  A    between atoms: _326  and  _328
REMARK  130  A    between atoms: _328  and  _329
REMARK  131  A    between atoms: _328  and  _331
REMARK  132  A    between atoms: _331  and  _332
REMARK  133  A    between atoms: _335  and  _337
REMARK  134  A    between atoms: _337  and  _338
REMARK  135  A    between atoms: _340  and  _342
REMARK  136  A    between atoms: _342  and  _343
REMARK  137  A    between atoms: _342  and  _345
REMARK  138  A    between atoms: _345  and  _346
REMARK  139  A    between atoms: _356  and  _358
REMARK  140  A    between atoms: _358  and  _359
REMARK  141  A    between atoms: _358  and  _361
REMARK  142  A    between atoms: _361  and  _362
REMARK  143  A    between atoms: _362  and  _363
REMARK  144  A    between atoms: _363  and  _364
REMARK  145  A    between atoms: _373  and  _375
REMARK  146  A    between atoms: _375  and  _376
REMARK  147  A    between atoms: _375  and  _378
REMARK  148  A    between atoms: _378  and  _379
REMARK  149  A    between atoms: _379  and  _380
REMARK  150  A    between atoms: _380  and  _381
REMARK  151  A    between atoms: _381  and  _382
REMARK  152  A    between atoms: _386  and  _388
REMARK  153  A    between atoms: _388  and  _389
REMARK  154  A    between atoms: _388  and  _391
REMARK  155  A    between atoms: _391  and  _392
REMARK  156  A    between atoms: _392  and  _393
REMARK  157  A    between atoms: _398  and  _400
REMARK  158  A    between atoms: _400  and  _401
REMARK  159  A    between atoms: _400  and  _403
REMARK  160  A    between atoms: _403  and  _404
REMARK                            x       y       z     vdW  Elec       q    Type
REMARK                         _______ _______ _______ _____ _____    ______ ____
ROOT
ATOM      1  O   HOH     1      21.849  16.605  17.107  0.00  0.00    +0.000 OA
ENDROOT
TORSDOF 0
REMARK  Name = ../refined-set-2016/3ujd/3ujd_pocket.pdb
REMARK  160 active torsions:
REMARK  status: ('A' for Active; 'I' for Inactive)
REMARK    1  A    between atoms: _1  and  _3
REMARK    2  A    between atoms: _3  and  _4
REMARK    3  A    between atoms: _3  and  _6
REMARK    4  A    between atoms: _6  and  _7
REMARK    5  A    between atoms: _7  and  _8
REMARK    6  A    between atoms: _13  and  _15
REMARK    7  A    between atoms: _15  and  _16
REMARK    8  A    between atoms: _15  and  _18
REMARK    9  A    between atoms: _18  and  _19
REMARK   10  A    between atoms: _25  and  _27
REMARK   11  A    between atoms: _27  and  _28
REMARK   12  A    between atoms: _30  and  _32
REMARK   13  A    between atoms: _32  and  _33
REMARK   14  A    between atoms: _32  and  _35
REMARK   15  A    between atoms: _35  and  _36
REMARK   16  A    between atoms: _41  and  _42
REMARK   17  A    between atoms: _44  and  _46
REMARK   18  A    between atoms: _46  and  _47
REMARK   19  A    between atoms: _46  and  _49
REMARK   20  A    between atoms: _49  and  _50
REMARK   21  A    between atoms: _53  and  _55
REMARK   22  A    between atoms: _55  and  _56
REMARK   23  A    between atoms: _55  and  _58
REMARK   24  A    between atoms: _58  and  _59
REMARK   25  A    between atoms: _65  and  _67
REMARK   26  A    between atoms: _67  and  _68
REMARK   27  A    between atoms: _67  and  _70
REMARK   28  A    between atoms: _70  and  _71
REMARK   29  A    between atoms: _76  and  _77
REMARK   30  A    between atoms: _79  and  _81
REMARK   31  A    between atoms: _81  and  _82
REMARK   32  A    between atoms: _81  and  _84
REMARK   33  A    between atoms: _84  and  _85
REMARK   34  A    between atoms: _88  and  _90
REMARK   35  A    between atoms: _90  and  _91
REMARK   36  A    between atoms: _90  and  _93
REMARK   37  A    between atoms: _93  and  _94
REMARK   38  A    between atoms: _96  and  _98
REMARK   39  A    between atoms: _98  and  _99
REMARK   40  A    between atoms: _98  and  _101
REMARK   41  A    between atoms: _101  and  _102
REMARK   42  A    between atoms: _104  and  _106
REMARK   43  A    between atoms: _106  and  _107
REMARK   44  A    between atoms: _109  and  _111
REMARK   45  A    between atoms: _111  and  _112
REMARK   46  A    between atoms: _114  and  _116
REMARK   47  A    between atoms: _116  and  _117
REMARK   48  A    between atoms: _119  and  _121
REMARK   49  A    between atoms: _121  and  _122
REMARK   50  A    between atoms: _124  and  _126
REMARK   51  A    between atoms: _126  and  _127
REMARK   52  A    between atoms: _126  and  _129
REMARK   53  A    between atoms: _129  and  _130
REMARK   54  A    between atoms: _130  and  _131
REMARK   55  A    between atoms: _131  and  _132
REMARK   56  A    between atoms: _141  and  _143
REMARK   57  A    between atoms: _143  and  _144
REMARK   58  A    between atoms: _143  and  _146
REMARK   59  A    between atoms: _146  and  _147
REMARK   60  A    between atoms: _150  and  _152
REMARK   61  A    between atoms: _152  and  _153
REMARK   62  A    between atoms: _156  and  _158
REMARK   63  A    between atoms: _158  and  _159
REMARK   64  A    between atoms: _158  and  _161
REMARK   65  A    between atoms: _161  and  _162
REMARK   66  A    between atoms: _165  and  _167
REMARK   67  A    between atoms: _167  and  _168
REMARK   68  A    between atoms: _167  and  _170
REMARK   69  A    between atoms: _170  and  _171
REMARK   70  A    between atoms: _174  and  _176
REMARK   71  A    between atoms: _176  and  _177
REMARK   72  A    between atoms: _176  and  _179
REMARK   73  A    between atoms: _179  and  _180
REMARK   74  A    between atoms: _185  and  _187
REMARK   75  A    between atoms: _187  and  _188
REMARK   76  A    between atoms: _187  and  _190
REMARK   77  A    between atoms: _190  and  _191
REMARK   78  A    between atoms: _194  and  _196
REMARK   79  A    between atoms: _196  and  _197
REMARK   80  A    between atoms: _196  and  _199
REMARK   81  A    between atoms: _199  and  _200
REMARK   82  A    between atoms: _203  and  _205
REMARK   83  A    between atoms: _205  and  _206
REMARK   84  A    between atoms: _205  and  _208
REMARK   85  A    between atoms: _208  and  _209
REMARK   86  A    between atoms: _214  and  _215
REMARK   87  A    between atoms: _217  and  _219
REMARK   88  A    between atoms: _219  and  _220
REMARK   89  A    between atoms: _219  and  _222
REMARK   90  A    between atoms: _222  and  _223
REMARK   91  A    between atoms: _228  and  _229
REMARK   92  A    between atoms: _231  and  _233
REMARK   93  A    between atoms: _233  and  _234
REMARK   94  A    between atoms: _233  and  _236
REMARK   95  A    between atoms: _236  and  _237
REMARK   96  A    between atoms: _237  and  _238
REMARK   97  A    between atoms: _243  and  _245
REMARK   98  A    between atoms: _245  and  _246
REMARK   99  A    between atoms: _245  and  _248
REMARK  100  A    between atoms: _248  and  _249
REMARK  101  A    between atoms: _249  and  _250
REMARK  102  A    between atoms: _250  and  _251
REMARK  103  A    between atoms: _260  and  _262
REMARK  104  A    between atoms: _262  and  _263
REMARK  105  A    between atoms: _262  and  _265
REMARK  106  A    between atoms: _265  and  _266
REMARK  107  A    between atoms: _271  and  _272
REMARK  108  A    between atoms: _274  and  _276
REMARK  109  A    between atoms: _276  and  _277
REMARK  110  A    between atoms: _276  and  _279
REMARK  111  A    between atoms: _279  and  _280
REMARK  112  A    between atoms: _283  and  _285
REMARK  113  A    between atoms: _285  and  _286
REMARK  114  A    between atoms: _285  and  _288
REMARK  115  A    between atoms: _288  and  _289
REMARK  116  A    between atoms: _299  and  _301
REMARK  117  A    between atoms: _301  and  _302
REMARK  118  A    between atoms: _301  and  _304
REMARK  119  A    between atoms: _304  and  _305
REMARK  120  A    between atoms: _308  and  _310
REMARK  121  A    between atoms: _310  and  _311
REMARK  122  A    between atoms: _310  and  _313
REMARK  123  A    between atoms: _313  and  _314
REMARK  124  A    between atoms: _314  and  _315
REMARK  125  A    between atoms: _318  and  _320
REMARK  126  A    between atoms: _320  and  _321
REMARK  127  A    between atoms: _320  and  _323
REMARK  128  A    between atoms: _323  and  _324
REMARK  129  A    between atoms: _326  and  _328
REMARK  130  A    between atoms: _328  and  _329
REMARK  131  A    between atoms: _328  and  _331
REMARK  132  A    between atoms: _331  and  _332
REMARK  133  A    between atoms: _335  and  _337
REMARK  134  A    between atoms: _337  and  _338
REMARK  135  A    between atoms: _340  and  _342
REMARK  136  A    between atoms: _342  and  _343
REMARK  137  A    between atoms: _342  and  _345
REMARK  138  A    between atoms: _345  and  _346
REMARK  139  A    between atoms: _356  and  _358
REMARK  140  A    between atoms: _358  and  _359
REMARK  141  A    between atoms: _358  and  _361
REMARK  142  A    between atoms: _361  and  _362
REMARK  143  A    between atoms: _362  and  _363
REMARK  144  A    between atoms: _363  and  _364
REMARK  145  A    between atoms: _373  and  _375
REMARK  146  A    between atoms: _375  and  _376
REMARK  147  A    between atoms: _375  and  _378
REMARK  148  A    between atoms: _378  and  _379
REMARK  149  A    between atoms: _379  and  _380
REMARK  150  A    between atoms: _380  and  _381
REMARK  151  A    between atoms: _381  and  _382
REMARK  152  A    between atoms: _386  and  _388
REMARK  153  A    between atoms: _388  and  _389
REMARK  154  A    between atoms: _388  and  _391
REMARK  155  A    between atoms: _391  and  _392
REMARK  156  A    between atoms: _392  and  _393
REMARK  157  A    between atoms: _398  and  _400
REMARK  158  A    between atoms: _400  and  _401
REMARK  159  A    between atoms: _400  and  _403
REMARK  160  A    between atoms: _403  and  _404
REMARK                            x       y       z     vdW  Elec       q    Type
REMARK                         _______ _______ _______ _____ _____    ______ ____
ROOT
ATOM      1  O   HOH     1      15.632   4.997  16.966  0.00  0.00    +0.000 OA
ENDROOT
TORSDOF 0
