REMARK  Name = ../refined-set-2016/3ccw/3ccw_pocket.pdb
REMARK  241 active torsions:
REMARK  status: ('A' for Active; 'I' for Inactive)
REMARK    1  A    between atoms: _1  and  _3
REMARK    2  A    between atoms: _3  and  _4
REMARK    3  A    between atoms: _3  and  _6
REMARK    4  A    between atoms: _6  and  _7
REMARK    5  A    between atoms: _10  and  _12
REMARK    6  A    between atoms: _12  and  _13
REMARK    7  A    between atoms: _12  and  _15
REMARK    8  A    between atoms: _15  and  _16
REMARK    9  A    between atoms: _16  and  _17
REMARK   10  A    between atoms: _20  and  _22
REMARK   11  A    between atoms: _22  and  _23
REMARK   12  A    between atoms: _25  and  _27
REMARK   13  A    between atoms: _27  and  _28
REMARK   14  A    between atoms: _27  and  _30
REMARK   15  A    between atoms: _32  and  _34
REMARK   16  A    between atoms: _34  and  _35
REMARK   17  A    between atoms: _34  and  _37
REMARK   18  A    between atoms: _37  and  _38
REMARK   19  A    between atoms: _41  and  _43
REMARK   20  A    between atoms: _43  and  _44
REMARK   21  A    between atoms: _43  and  _46
REMARK   22  A    between atoms: _49  and  _51
REMARK   23  A    between atoms: _51  and  _52
REMARK   24  A    between atoms: _55  and  _57
REMARK   25  A    between atoms: _57  and  _58
REMARK   26  A    between atoms: _57  and  _60
REMARK   27  A    between atoms: _60  and  _61
REMARK   28  A    between atoms: _63  and  _65
REMARK   29  A    between atoms: _65  and  _66
REMARK   30  A    between atoms: _65  and  _68
REMARK   31  A    between atoms: _68  and  _69
REMARK   32  A    between atoms: _72  and  _74
REMARK   33  A    between atoms: _74  and  _75
REMARK   34  A    between atoms: _74  and  _77
REMARK   35  A    between atoms: _77  and  _78
REMARK   36  A    between atoms: _83  and  _85
REMARK   37  A    between atoms: _85  and  _86
REMARK   38  A    between atoms: _85  and  _88
REMARK   39  A    between atoms: _88  and  _89
REMARK   40  A    between atoms: _89  and  _90
REMARK   41  A    between atoms: _90  and  _91
REMARK   42  A    between atoms: _100  and  _102
REMARK   43  A    between atoms: _102  and  _103
REMARK   44  A    between atoms: _105  and  _107
REMARK   45  A    between atoms: _107  and  _108
REMARK   46  A    between atoms: _107  and  _110
REMARK   47  A    between atoms: _113  and  _115
REMARK   48  A    between atoms: _115  and  _116
REMARK   49  A    between atoms: _115  and  _118
REMARK   50  A    between atoms: _118  and  _119
REMARK   51  A    between atoms: _122  and  _124
REMARK   52  A    between atoms: _124  and  _125
REMARK   53  A    between atoms: _124  and  _127
REMARK   54  A    between atoms: _127  and  _128
REMARK   55  A    between atoms: _128  and  _129
REMARK   56  A    between atoms: _129  and  _130
REMARK   57  A    between atoms: _130  and  _131
REMARK   58  A    between atoms: _135  and  _137
REMARK   59  A    between atoms: _137  and  _138
REMARK   60  A    between atoms: _137  and  _140
REMARK   61  A    between atoms: _140  and  _141
REMARK   62  A    between atoms: _146  and  _148
REMARK   63  A    between atoms: _148  and  _149
REMARK   64  A    between atoms: _148  and  _151
REMARK   65  A    between atoms: _151  and  _152
REMARK   66  A    between atoms: _157  and  _159
REMARK   67  A    between atoms: _159  and  _160
REMARK   68  A    between atoms: _163  and  _165
REMARK   69  A    between atoms: _165  and  _166
REMARK   70  A    between atoms: _165  and  _168
REMARK   71  A    between atoms: _168  and  _169
REMARK   72  A    between atoms: _174  and  _176
REMARK   73  A    between atoms: _176  and  _177
REMARK   74  A    between atoms: _180  and  _182
REMARK   75  A    between atoms: _182  and  _183
REMARK   76  A    between atoms: _186  and  _188
REMARK   77  A    between atoms: _188  and  _189
REMARK   78  A    between atoms: _188  and  _191
REMARK   79  A    between atoms: _191  and  _192
REMARK   80  A    between atoms: _197  and  _199
REMARK   81  A    between atoms: _199  and  _200
REMARK   82  A    between atoms: _199  and  _202
REMARK   83  A    between atoms: _202  and  _203
REMARK   84  A    between atoms: _206  and  _208
REMARK   85  A    between atoms: _208  and  _209
REMARK   86  A    between atoms: _211  and  _213
REMARK   87  A    between atoms: _213  and  _214
REMARK   88  A    between atoms: _213  and  _216
REMARK   89  A    between atoms: _216  and  _217
REMARK   90  A    between atoms: _217  and  _218
REMARK   91  A    between atoms: _221  and  _223
REMARK   92  A    between atoms: _223  and  _224
REMARK   93  A    between atoms: _223  and  _226
REMARK   94  A    between atoms: _226  and  _227
REMARK   95  A    between atoms: _230  and  _232
REMARK   96  A    between atoms: _232  and  _233
REMARK   97  A    between atoms: _232  and  _235
REMARK   98  A    between atoms: _235  and  _236
REMARK   99  A    between atoms: _238  and  _240
REMARK  100  A    between atoms: _240  and  _241
REMARK  101  A    between atoms: _240  and  _243
REMARK  102  A    between atoms: _243  and  _244
REMARK  103  A    between atoms: _247  and  _249
REMARK  104  A    between atoms: _249  and  _250
REMARK  105  A    between atoms: _249  and  _252
REMARK  106  A    between atoms: _252  and  _253
REMARK  107  A    between atoms: _253  and  _254
REMARK  108  A    between atoms: _256  and  _258
REMARK  109  A    between atoms: _258  and  _259
REMARK  110  A    between atoms: _262  and  _264
REMARK  111  A    between atoms: _264  and  _265
REMARK  112  A    between atoms: _268  and  _270
REMARK  113  A    between atoms: _270  and  _271
REMARK  114  A    between atoms: _270  and  _273
REMARK  115  A    between atoms: _273  and  _274
REMARK  116  A    between atoms: _277  and  _279
REMARK  117  A    between atoms: _279  and  _280
REMARK  118  A    between atoms: _279  and  _282
REMARK  119  A    between atoms: _282  and  _283
REMARK  120  A    between atoms: _288  and  _290
REMARK  121  A    between atoms: _290  and  _291
REMARK  122  A    between atoms: _290  and  _293
REMARK  123  A    between atoms: _293  and  _294
REMARK  124  A    between atoms: _294  and  _295
REMARK  125  A    between atoms: _298  and  _300
REMARK  126  A    between atoms: _300  and  _301
REMARK  127  A    between atoms: _300  and  _303
REMARK  128  A    between atoms: _303  and  _304
REMARK  129  A    between atoms: _307  and  _309
REMARK  130  A    between atoms: _309  and  _310
REMARK  131  A    between atoms: _309  and  _312
REMARK  132  A    between atoms: _312  and  _313
REMARK  133  A    between atoms: _313  and  _314
REMARK  134  A    between atoms: _314  and  _315
REMARK  135  A    between atoms: _324  and  _326
REMARK  136  A    between atoms: _326  and  _327
REMARK  137  A    between atoms: _329  and  _331
REMARK  138  A    between atoms: _331  and  _332
REMARK  139  A    between atoms: _331  and  _334
REMARK  140  A    between atoms: _334  and  _335
REMARK  141  A    between atoms: _335  and  _336
REMARK  142  A    between atoms: _338  and  _340
REMARK  143  A    between atoms: _340  and  _341
REMARK  144  A    between atoms: _340  and  _343
REMARK  145  A    between atoms: _343  and  _344
REMARK  146  A    between atoms: _344  and  _345
REMARK  147  A    between atoms: _347  and  _349
REMARK  148  A    between atoms: _349  and  _350
REMARK  149  A    between atoms: _349  and  _352
REMARK  150  A    between atoms: _352  and  _353
REMARK  151  A    between atoms: _358  and  _360
REMARK  152  A    between atoms: _360  and  _361
REMARK  153  A    between atoms: _360  and  _363
REMARK  154  A    between atoms: _363  and  _364
REMARK  155  A    between atoms: _364  and  _365
REMARK  156  A    between atoms: _367  and  _369
REMARK  157  A    between atoms: _369  and  _370
REMARK  158  A    between atoms: _369  and  _372
REMARK  159  A    between atoms: _372  and  _373
REMARK  160  A    between atoms: _376  and  _378
REMARK  161  A    between atoms: _378  and  _379
REMARK  162  A    between atoms: _378  and  _381
REMARK  163  A    between atoms: _381  and  _382
REMARK  164  A    between atoms: _384  and  _386
REMARK  165  A    between atoms: _386  and  _387
REMARK  166  A    between atoms: _386  and  _389
REMARK  167  A    between atoms: _389  and  _390
REMARK  168  A    between atoms: _390  and  _391
REMARK  169  A    between atoms: _391  and  _392
REMARK  170  A    between atoms: _392  and  _393
REMARK  171  A    between atoms: _397  and  _399
REMARK  172  A    between atoms: _399  and  _400
REMARK  173  A    between atoms: _399  and  _402
REMARK  174  A    between atoms: _402  and  _403
REMARK  175  A    between atoms: _406  and  _408
REMARK  176  A    between atoms: _408  and  _409
REMARK  177  A    between atoms: _408  and  _411
REMARK  178  A    between atoms: _411  and  _412
REMARK  179  A    between atoms: _412  and  _413
REMARK  180  A    between atoms: _416  and  _418
REMARK  181  A    between atoms: _418  and  _419
REMARK  182  A    between atoms: _422  and  _424
REMARK  183  A    between atoms: _424  and  _425
REMARK  184  A    between atoms: _424  and  _427
REMARK  185  A    between atoms: _430  and  _432
REMARK  186  A    between atoms: _432  and  _433
REMARK  187  A    between atoms: _432  and  _435
REMARK  188  A    between atoms: _435  and  _436
REMARK  189  A    between atoms: _438  and  _440
REMARK  190  A    between atoms: _440  and  _441
REMARK  191  A    between atoms: _443  and  _445
REMARK  192  A    between atoms: _445  and  _446
REMARK  193  A    between atoms: _445  and  _448
REMARK  194  A    between atoms: _448  and  _449
REMARK  195  A    between atoms: _454  and  _456
REMARK  196  A    between atoms: _456  and  _457
REMARK  197  A    between atoms: _456  and  _459
REMARK  198  A    between atoms: _459  and  _460
REMARK  199  A    between atoms: _465  and  _466
REMARK  200  A    between atoms: _468  and  _470
REMARK  201  A    between atoms: _470  and  _471
REMARK  202  A    between atoms: _470  and  _473
REMARK  203  A    between atoms: _475  and  _477
REMARK  204  A    between atoms: _477  and  _478
REMARK  205  A    between atoms: _477  and  _480
REMARK  206  A    between atoms: _480  and  _481
REMARK  207  A    between atoms: _484  and  _486
REMARK  208  A    between atoms: _486  and  _487
REMARK  209  A    between atoms: _486  and  _489
REMARK  210  A    between atoms: _489  and  _490
REMARK  211  A    between atoms: _493  and  _495
REMARK  212  A    between atoms: _495  and  _496
REMARK  213  A    between atoms: _495  and  _498
REMARK  214  A    between atoms: _498  and  _499
REMARK  215  A    between atoms: _499  and  _500
REMARK  216  A    between atoms: _500  and  _501
REMARK  217  A    between atoms: _501  and  _502
REMARK  218  A    between atoms: _506  and  _508
REMARK  219  A    between atoms: _508  and  _509
REMARK  220  A    between atoms: _508  and  _511
REMARK  221  A    between atoms: _511  and  _512
REMARK  222  A    between atoms: _512  and  _513
REMARK  223  A    between atoms: _513  and  _514
REMARK  224  A    between atoms: _514  and  _515
REMARK  225  A    between atoms: _519  and  _521
REMARK  226  A    between atoms: _521  and  _522
REMARK  227  A    between atoms: _521  and  _524
REMARK  228  A    between atoms: _524  and  _525
REMARK  229  A    between atoms: _525  and  _526
REMARK  230  A    between atoms: _526  and  _527
REMARK  231  A    between atoms: _536  and  _538
REMARK  232  A    between atoms: _538  and  _539
REMARK  233  A    between atoms: _538  and  _541
REMARK  234  A    between atoms: _541  and  _542
REMARK  235  A    between atoms: _545  and  _547
REMARK  236  A    between atoms: _547  and  _548
REMARK  237  A    between atoms: _551  and  _553
REMARK  238  A    between atoms: _553  and  _554
REMARK  239  A    between atoms: _553  and  _556
REMARK  240  A    between atoms: _556  and  _557
REMARK  241  A    between atoms: _557  and  _558
REMARK                            x       y       z     vdW  Elec       q    Type
REMARK                         _______ _______ _______ _____ _____    ______ ____
ROOT
ATOM      1  CA  THR A   1     -10.392  -4.564  42.837  0.00  0.00    +0.160 C 
ENDROOT
BRANCH   1   2
ATOM      2  N   THR A   1     -10.985  -5.878  42.642  0.00  0.00    -0.237 NA
ATOM      3  H   THR A   1     -11.181  -6.476  43.470  0.00  0.00    +0.142 HD
ENDBRANCH   1   2
BRANCH   1   4
ATOM      4  C   THR A   1      -9.552  -4.498  44.115  0.00  0.00    +0.227 C 
ATOM      5  O   THR A   1      -9.667  -5.358  44.982  0.00  0.00    -0.287 OA
ENDBRANCH   1   4
BRANCH   1   6
ATOM      6  CB  THR A   1     -11.517  -3.500  42.824  0.00  0.00    +0.134 C 
ATOM      7  CG2 THR A   1     -12.488  -3.668  44.009  0.00  0.00    +0.034 C 
BRANCH   6   8
ATOM      8  OG1 THR A   1     -10.969  -2.186  42.981  0.00  0.00    -0.383 OA
ATOM      9  HG1 THR A   1     -10.342  -2.000  42.238  0.00  0.00    +0.210 HD
ENDBRANCH   6   8
ENDBRANCH   1   6
TORSDOF 4
REMARK  Name = ../refined-set-2016/3ccw/3ccw_pocket.pdb
REMARK  241 active torsions:
REMARK  status: ('A' for Active; 'I' for Inactive)
REMARK    1  A    between atoms: _1  and  _3
REMARK    2  A    between atoms: _3  and  _4
REMARK    3  A    between atoms: _3  and  _6
REMARK    4  A    between atoms: _6  and  _7
REMARK    5  A    between atoms: _10  and  _12
REMARK    6  A    between atoms: _12  and  _13
REMARK    7  A    between atoms: _12  and  _15
REMARK    8  A    between atoms: _15  and  _16
REMARK    9  A    between atoms: _16  and  _17
REMARK   10  A    between atoms: _20  and  _22
REMARK   11  A    between atoms: _22  and  _23
REMARK   12  A    between atoms: _25  and  _27
REMARK   13  A    between atoms: _27  and  _28
REMARK   14  A    between atoms: _27  and  _30
REMARK   15  A    between atoms: _32  and  _34
REMARK   16  A    between atoms: _34  and  _35
REMARK   17  A    between atoms: _34  and  _37
REMARK   18  A    between atoms: _37  and  _38
REMARK   19  A    between atoms: _41  and  _43
REMARK   20  A    between atoms: _43  and  _44
REMARK   21  A    between atoms: _43  and  _46
REMARK   22  A    between atoms: _49  and  _51
REMARK   23  A    between atoms: _51  and  _52
REMARK   24  A    between atoms: _55  and  _57
REMARK   25  A    between atoms: _57  and  _58
REMARK   26  A    between atoms: _57  and  _60
REMARK   27  A    between atoms: _60  and  _61
REMARK   28  A    between atoms: _63  and  _65
REMARK   29  A    between atoms: _65  and  _66
REMARK   30  A    between atoms: _65  and  _68
REMARK   31  A    between atoms: _68  and  _69
REMARK   32  A    between atoms: _72  and  _74
REMARK   33  A    between atoms: _74  and  _75
REMARK   34  A    between atoms: _74  and  _77
REMARK   35  A    between atoms: _77  and  _78
REMARK   36  A    between atoms: _83  and  _85
REMARK   37  A    between atoms: _85  and  _86
REMARK   38  A    between atoms: _85  and  _88
REMARK   39  A    between atoms: _88  and  _89
REMARK   40  A    between atoms: _89  and  _90
REMARK   41  A    between atoms: _90  and  _91
REMARK   42  A    between atoms: _100  and  _102
REMARK   43  A    between atoms: _102  and  _103
REMARK   44  A    between atoms: _105  and  _107
REMARK   45  A    between atoms: _107  and  _108
REMARK   46  A    between atoms: _107  and  _110
REMARK   47  A    between atoms: _113  and  _115
REMARK   48  A    between atoms: _115  and  _116
REMARK   49  A    between atoms: _115  and  _118
REMARK   50  A    between atoms: _118  and  _119
REMARK   51  A    between atoms: _122  and  _124
REMARK   52  A    between atoms: _124  and  _125
REMARK   53  A    between atoms: _124  and  _127
REMARK   54  A    between atoms: _127  and  _128
REMARK   55  A    between atoms: _128  and  _129
REMARK   56  A    between atoms: _129  and  _130
REMARK   57  A    between atoms: _130  and  _131
REMARK   58  A    between atoms: _135  and  _137
REMARK   59  A    between atoms: _137  and  _138
REMARK   60  A    between atoms: _137  and  _140
REMARK   61  A    between atoms: _140  and  _141
REMARK   62  A    between atoms: _146  and  _148
REMARK   63  A    between atoms: _148  and  _149
REMARK   64  A    between atoms: _148  and  _151
REMARK   65  A    between atoms: _151  and  _152
REMARK   66  A    between atoms: _157  and  _159
REMARK   67  A    between atoms: _159  and  _160
REMARK   68  A    between atoms: _163  and  _165
REMARK   69  A    between atoms: _165  and  _166
REMARK   70  A    between atoms: _165  and  _168
REMARK   71  A    between atoms: _168  and  _169
REMARK   72  A    between atoms: _174  and  _176
REMARK   73  A    between atoms: _176  and  _177
REMARK   74  A    between atoms: _180  and  _182
REMARK   75  A    between atoms: _182  and  _183
REMARK   76  A    between atoms: _186  and  _188
REMARK   77  A    between atoms: _188  and  _189
REMARK   78  A    between atoms: _188  and  _191
REMARK   79  A    between atoms: _191  and  _192
REMARK   80  A    between atoms: _197  and  _199
REMARK   81  A    between atoms: _199  and  _200
REMARK   82  A    between atoms: _199  and  _202
REMARK   83  A    between atoms: _202  and  _203
REMARK   84  A    between atoms: _206  and  _208
REMARK   85  A    between atoms: _208  and  _209
REMARK   86  A    between atoms: _211  and  _213
REMARK   87  A    between atoms: _213  and  _214
REMARK   88  A    between atoms: _213  and  _216
REMARK   89  A    between atoms: _216  and  _217
REMARK   90  A    between atoms: _217  and  _218
REMARK   91  A    between atoms: _221  and  _223
REMARK   92  A    between atoms: _223  and  _224
REMARK   93  A    between atoms: _223  and  _226
REMARK   94  A    between atoms: _226  and  _227
REMARK   95  A    between atoms: _230  and  _232
REMARK   96  A    between atoms: _232  and  _233
REMARK   97  A    between atoms: _232  and  _235
REMARK   98  A    between atoms: _235  and  _236
REMARK   99  A    between atoms: _238  and  _240
REMARK  100  A    between atoms: _240  and  _241
REMARK  101  A    between atoms: _240  and  _243
REMARK  102  A    between atoms: _243  and  _244
REMARK  103  A    between atoms: _247  and  _249
REMARK  104  A    between atoms: _249  and  _250
REMARK  105  A    between atoms: _249  and  _252
REMARK  106  A    between atoms: _252  and  _253
REMARK  107  A    between atoms: _253  and  _254
REMARK  108  A    between atoms: _256  and  _258
REMARK  109  A    between atoms: _258  and  _259
REMARK  110  A    between atoms: _262  and  _264
REMARK  111  A    between atoms: _264  and  _265
REMARK  112  A    between atoms: _268  and  _270
REMARK  113  A    between atoms: _270  and  _271
REMARK  114  A    between atoms: _270  and  _273
REMARK  115  A    between atoms: _273  and  _274
REMARK  116  A    between atoms: _277  and  _279
REMARK  117  A    between atoms: _279  and  _280
REMARK  118  A    between atoms: _279  and  _282
REMARK  119  A    between atoms: _282  and  _283
REMARK  120  A    between atoms: _288  and  _290
REMARK  121  A    between atoms: _290  and  _291
REMARK  122  A    between atoms: _290  and  _293
REMARK  123  A    between atoms: _293  and  _294
REMARK  124  A    between atoms: _294  and  _295
REMARK  125  A    between atoms: _298  and  _300
REMARK  126  A    between atoms: _300  and  _301
REMARK  127  A    between atoms: _300  and  _303
REMARK  128  A    between atoms: _303  and  _304
REMARK  129  A    between atoms: _307  and  _309
REMARK  130  A    between atoms: _309  and  _310
REMARK  131  A    between atoms: _309  and  _312
REMARK  132  A    between atoms: _312  and  _313
REMARK  133  A    between atoms: _313  and  _314
REMARK  134  A    between atoms: _314  and  _315
REMARK  135  A    between atoms: _324  and  _326
REMARK  136  A    between atoms: _326  and  _327
REMARK  137  A    between atoms: _329  and  _331
REMARK  138  A    between atoms: _331  and  _332
REMARK  139  A    between atoms: _331  and  _334
REMARK  140  A    between atoms: _334  and  _335
REMARK  141  A    between atoms: _335  and  _336
REMARK  142  A    between atoms: _338  and  _340
REMARK  143  A    between atoms: _340  and  _341
REMARK  144  A    between atoms: _340  and  _343
REMARK  145  A    between atoms: _343  and  _344
REMARK  146  A    between atoms: _344  and  _345
REMARK  147  A    between atoms: _347  and  _349
REMARK  148  A    between atoms: _349  and  _350
REMARK  149  A    between atoms: _349  and  _352
REMARK  150  A    between atoms: _352  and  _353
REMARK  151  A    between atoms: _358  and  _360
REMARK  152  A    between atoms: _360  and  _361
REMARK  153  A    between atoms: _360  and  _363
REMARK  154  A    between atoms: _363  and  _364
REMARK  155  A    between atoms: _364  and  _365
REMARK  156  A    between atoms: _367  and  _369
REMARK  157  A    between atoms: _369  and  _370
REMARK  158  A    between atoms: _369  and  _372
REMARK  159  A    between atoms: _372  and  _373
REMARK  160  A    between atoms: _376  and  _378
REMARK  161  A    between atoms: _378  and  _379
REMARK  162  A    between atoms: _378  and  _381
REMARK  163  A    between atoms: _381  and  _382
REMARK  164  A    between atoms: _384  and  _386
REMARK  165  A    between atoms: _386  and  _387
REMARK  166  A    between atoms: _386  and  _389
REMARK  167  A    between atoms: _389  and  _390
REMARK  168  A    between atoms: _390  and  _391
REMARK  169  A    between atoms: _391  and  _392
REMARK  170  A    between atoms: _392  and  _393
REMARK  171  A    between atoms: _397  and  _399
REMARK  172  A    between atoms: _399  and  _400
REMARK  173  A    between atoms: _399  and  _402
REMARK  174  A    between atoms: _402  and  _403
REMARK  175  A    between atoms: _406  and  _408
REMARK  176  A    between atoms: _408  and  _409
REMARK  177  A    between atoms: _408  and  _411
REMARK  178  A    between atoms: _411  and  _412
REMARK  179  A    between atoms: _412  and  _413
REMARK  180  A    between atoms: _416  and  _418
REMARK  181  A    between atoms: _418  and  _419
REMARK  182  A    between atoms: _422  and  _424
REMARK  183  A    between atoms: _424  and  _425
REMARK  184  A    between atoms: _424  and  _427
REMARK  185  A    between atoms: _430  and  _432
REMARK  186  A    between atoms: _432  and  _433
REMARK  187  A    between atoms: _432  and  _435
REMARK  188  A    between atoms: _435  and  _436
REMARK  189  A    between atoms: _438  and  _440
REMARK  190  A    between atoms: _440  and  _441
REMARK  191  A    between atoms: _443  and  _445
REMARK  192  A    between atoms: _445  and  _446
REMARK  193  A    between atoms: _445  and  _448
REMARK  194  A    between atoms: _448  and  _449
REMARK  195  A    between atoms: _454  and  _456
REMARK  196  A    between atoms: _456  and  _457
REMARK  197  A    between atoms: _456  and  _459
REMARK  198  A    between atoms: _459  and  _460
REMARK  199  A    between atoms: _465  and  _466
REMARK  200  A    between atoms: _468  and  _470
REMARK  201  A    between atoms: _470  and  _471
REMARK  202  A    between atoms: _470  and  _473
REMARK  203  A    between atoms: _475  and  _477
REMARK  204  A    between atoms: _477  and  _478
REMARK  205  A    between atoms: _477  and  _480
REMARK  206  A    between atoms: _480  and  _481
REMARK  207  A    between atoms: _484  and  _486
REMARK  208  A    between atoms: _486  and  _487
REMARK  209  A    between atoms: _486  and  _489
REMARK  210  A    between atoms: _489  and  _490
REMARK  211  A    between atoms: _493  and  _495
REMARK  212  A    between atoms: _495  and  _496
REMARK  213  A    between atoms: _495  and  _498
REMARK  214  A    between atoms: _498  and  _499
REMARK  215  A    between atoms: _499  and  _500
REMARK  216  A    between atoms: _500  and  _501
REMARK  217  A    between atoms: _501  and  _502
REMARK  218  A    between atoms: _506  and  _508
REMARK  219  A    between atoms: _508  and  _509
REMARK  220  A    between atoms: _508  and  _511
REMARK  221  A    between atoms: _511  and  _512
REMARK  222  A    between atoms: _512  and  _513
REMARK  223  A    between atoms: _513  and  _514
REMARK  224  A    between atoms: _514  and  _515
REMARK  225  A    between atoms: _519  and  _521
REMARK  226  A    between atoms: _521  and  _522
REMARK  227  A    between atoms: _521  and  _524
REMARK  228  A    between atoms: _524  and  _525
REMARK  229  A    between atoms: _525  and  _526
REMARK  230  A    between atoms: _526  and  _527
REMARK  231  A    between atoms: _536  and  _538
REMARK  232  A    between atoms: _538  and  _539
REMARK  233  A    between atoms: _538  and  _541
REMARK  234  A    between atoms: _541  and  _542
REMARK  235  A    between atoms: _545  and  _547
REMARK  236  A    between atoms: _547  and  _548
REMARK  237  A    between atoms: _551  and  _553
REMARK  238  A    between atoms: _553  and  _554
REMARK  239  A    between atoms: _553  and  _556
REMARK  240  A    between atoms: _556  and  _557
REMARK  241  A    between atoms: _557  and  _558
REMARK                            x       y       z     vdW  Elec       q    Type
REMARK                         _______ _______ _______ _____ _____    ______ ____
ROOT
ATOM      1  CA  SER A   7     -20.289   2.229  46.682  0.00  0.00    +0.178 C 
ENDROOT
BRANCH   1   4
ATOM      2  C   ALA A   6     -20.463   0.195  48.013  0.00  0.00    +0.241 C 
ATOM      3  O   ALA A   6     -21.688   0.295  48.089  0.00  0.00    -0.273 OA
ATOM      4  N   SER A   7     -19.706   1.082  47.373  0.00  0.00    -0.295 N 
ATOM      5  H   SER A   7     -18.674   0.956  47.364  0.00  0.00    +0.150 HD
BRANCH   2   6
ATOM      6  CA  ALA A   6     -19.740  -0.994  48.648  0.00  0.00    +0.149 C 
ATOM      7  CB  ALA A   6     -19.160  -0.603  50.001  0.00  0.00    +0.031 C 
BRANCH   6   9
ATOM      8  C   VAL A   5     -18.953  -2.065  46.594  0.00  0.00    +0.241 C 
ATOM      9  N   ALA A   6     -18.686  -1.507  47.771  0.00  0.00    -0.297 N 
ATOM     10  H   ALA A   6     -17.695  -1.433  48.079  0.00  0.00    +0.150 HD
ATOM     11  O   VAL A   5     -20.103  -2.246  46.182  0.00  0.00    -0.273 OA
BRANCH   8  12
ATOM     12  CA  VAL A   5     -17.751  -2.491  45.743  0.00  0.00    +0.149 C 
BRANCH  12  14
ATOM     13  C   LEU A   4     -16.774  -0.299  45.247  0.00  0.00    +0.241 C 
ATOM     14  N   VAL A   5     -16.660  -1.507  45.800  0.00  0.00    -0.297 N 
ATOM     15  H   VAL A   5     -15.775  -1.760  46.285  0.00  0.00    +0.150 HD
ATOM     16  O   LEU A   4     -17.808   0.089  44.696  0.00  0.00    -0.273 OA
BRANCH  13  17
ATOM     17  CA  LEU A   4     -15.548   0.614  45.307  0.00  0.00    +0.149 C 
BRANCH  17  20
ATOM     18  C   CYS A   3     -15.651   1.191  47.673  0.00  0.00    +0.242 C 
ATOM     19  O   CYS A   3     -16.842   1.484  47.583  0.00  0.00    -0.273 OA
ATOM     20  N   LEU A   4     -14.953   0.715  46.640  0.00  0.00    -0.297 N 
ATOM     21  H   LEU A   4     -13.969   0.411  46.785  0.00  0.00    +0.150 HD
BRANCH  18  22
ATOM     22  CA  CYS A   3     -14.945   1.339  49.020  0.00  0.00    +0.160 C 
BRANCH  22  24
ATOM     23  C   GLY A   2     -12.489   1.455  48.714  0.00  0.00    +0.243 C 
ATOM     24  N   CYS A   3     -13.578   0.810  49.114  0.00  0.00    -0.296 N 
ATOM     25  H   CYS A   3     -13.454  -0.138  49.523  0.00  0.00    +0.150 HD
ATOM     26  O   GLY A   2     -12.510   2.487  48.053  0.00  0.00    -0.273 OA
BRANCH  23  27
ATOM     27  CA  GLY A   2     -11.172   0.804  49.081  0.00  0.00    +0.176 C 
BRANCH  27  29
ATOM     28  C   GLU A   1     -10.631   0.217  46.785  0.00  0.00    +0.238 C 
ATOM     29  N   GLY A   2     -10.268   0.744  47.950  0.00  0.00    -0.296 N 
ATOM     30  H   GLY A   2      -9.306   1.125  48.053  0.00  0.00    +0.150 HD
ATOM     31  O   GLU A   1     -11.750  -0.264  46.579  0.00  0.00    -0.274 OA
BRANCH  28  32
ATOM     32  CA  GLU A   1      -9.582   0.272  45.668  0.00  0.00    +0.145 C 
BRANCH  32  33
ATOM     33  N   GLU A   1      -9.190  -1.073  45.268  0.00  0.00    -0.238 NA
ATOM     34  H   GLU A   1      -9.642  -1.505  44.437  0.00  0.00    +0.142 HD
ENDBRANCH  32  33
BRANCH  32  35
ATOM     35  CB  GLU A   1     -10.141   1.055  44.483  0.00  0.00    +0.038 C 
BRANCH  35  36
ATOM     36  CG  GLU A   1     -10.919   2.304  44.884  0.00  0.00    +0.116 C 
BRANCH  36  37
ATOM     37  CD  GLU A   1     -10.827   3.409  43.858  0.00  0.00    +0.365 C 
ATOM     38  OE2 GLU A   1     -10.758   4.593  44.261  0.00  0.00    -0.246 OA
ATOM     39  OE1 GLU A   1     -10.831   3.088  42.651  0.00  0.00    -0.246 OA
ENDBRANCH  36  37
ENDBRANCH  35  36
ENDBRANCH  32  35
ENDBRANCH  28  32
ENDBRANCH  27  29
ENDBRANCH  23  27
ENDBRANCH  22  24
BRANCH  22  40
ATOM     40  CB  CYS A   3     -15.008   2.801  49.487  0.00  0.00    +0.098 C 
ATOM     41  SG  CYS A   3     -14.521   3.009  51.212  0.00  0.00    -0.080 S 
ENDBRANCH  22  40
ENDBRANCH  18  22
ENDBRANCH  17  20
BRANCH  17  42
ATOM     42  CB  LEU A   4     -14.516   0.150  44.275  0.00  0.00    +0.029 C 
BRANCH  42  43
ATOM     43  CG  LEU A   4     -15.028   0.061  42.833  0.00  0.00    +0.002 C 
ATOM     44  CD2 LEU A   4     -15.505   1.434  42.337  0.00  0.00    +0.000 C 
ATOM     45  CD1 LEU A   4     -13.965  -0.510  41.916  0.00  0.00    +0.000 C 
ENDBRANCH  42  43
ENDBRANCH  17  42
ENDBRANCH  13  17
ENDBRANCH  12  14
BRANCH  12  46
ATOM     46  CB  VAL A   5     -17.296  -3.910  46.176  0.00  0.00    +0.027 C 
ATOM     47  CG2 VAL A   5     -18.476  -4.870  46.183  0.00  0.00    +0.002 C 
ATOM     48  CG1 VAL A   5     -16.212  -4.435  45.242  0.00  0.00    +0.002 C 
ENDBRANCH  12  46
ENDBRANCH   8  12
ENDBRANCH   6   9
ENDBRANCH   2   6
ENDBRANCH   1   4
BRANCH   1  49
ATOM     49  C   SER A   7     -21.186   1.766  45.536  0.00  0.00    +0.243 C 
ATOM     50  O   SER A   7     -22.302   2.263  45.380  0.00  0.00    -0.273 OA
ATOM     51  N   THR A   8     -20.703   0.804  44.752  0.00  0.00    -0.295 N 
ATOM     52  H   THR A   8     -19.753   0.427  44.945  0.00  0.00    +0.150 HD
BRANCH  51  53
ATOM     53  CA  THR A   8     -21.463   0.261  43.630  0.00  0.00    +0.176 C 
BRANCH  53  54
ATOM     54  C   THR A   8     -22.718  -0.460  44.126  0.00  0.00    +0.243 C 
ATOM     55  N   ASN A   9     -22.593  -1.188  45.236  0.00  0.00    -0.297 N 
ATOM     56  H   ASN A   9     -21.653  -1.284  45.671  0.00  0.00    +0.150 HD
ATOM     57  O   THR A   8     -23.777  -0.352  43.512  0.00  0.00    -0.273 OA
BRANCH  55  58
ATOM     58  CA  ASN A   9     -23.736  -1.857  45.863  0.00  0.00    +0.158 C 
BRANCH  58  59
ATOM     59  C   ASN A   9     -24.815  -0.855  46.309  0.00  0.00    +0.241 C 
ATOM     60  N   ARG A  10     -24.406   0.344  46.713  0.00  0.00    -0.297 N 
ATOM     61  H   ARG A  10     -23.386   0.534  46.782  0.00  0.00    +0.150 HD
ATOM     62  O   ASN A   9     -25.997  -1.165  46.276  0.00  0.00    -0.273 OA
BRANCH  60  63
ATOM     63  CA  ARG A  10     -25.353   1.404  47.064  0.00  0.00    +0.149 C 
BRANCH  63  64
ATOM     64  C   ARG A  10     -26.123   1.893  45.837  0.00  0.00    +0.241 C 
ATOM     65  O   ARG A  10     -27.332   2.149  45.915  0.00  0.00    -0.273 OA
ATOM     66  N   GLY A  11     -25.419   2.018  44.711  0.00  0.00    -0.296 N 
ATOM     67  H   GLY A  11     -24.389   1.877  44.744  0.00  0.00    +0.150 HD
BRANCH  66  68
ATOM     68  CA  GLY A  11     -26.042   2.344  43.443  0.00  0.00    +0.163 C 
BRANCH  68  69
ATOM     69  C   GLY A  11     -27.024   1.290  42.969  0.00  0.00    +0.229 C 
ATOM     70  O   GLY A  11     -28.043   1.624  42.363  0.00  0.00    -0.286 OA
ENDBRANCH  68  69
ENDBRANCH  66  68
ENDBRANCH  63  64
BRANCH  63  71
ATOM     71  CB  ARG A  10     -24.643   2.576  47.739  0.00  0.00    +0.033 C 
BRANCH  71  72
ATOM     72  CG  ARG A  10     -25.596   3.570  48.389  0.00  0.00    +0.045 C 
BRANCH  72  73
ATOM     73  CD  ARG A  10     -24.911   4.661  49.190  0.00  0.00    +0.174 C 
BRANCH  73  74
ATOM     74  NE  ARG A  10     -24.122   5.556  48.340  0.00  0.00    -0.265 N 
ATOM     75  CZ  ARG A  10     -23.874   6.836  48.608  0.00  0.00    +0.342 C 
ATOM     76  NH2 ARG A  10     -24.362   7.417  49.700  0.00  0.00    -0.292 N 
ATOM     77 HH21 ARG A  10     -24.949   6.870  50.362  0.00  0.00    +0.255 HD
ATOM     78 HH22 ARG A  10     -24.157   8.418  49.892  0.00  0.00    +0.255 HD
ATOM     79  NH1 ARG A  10     -23.134   7.548  47.767  0.00  0.00    -0.292 N 
ATOM     80 HH11 ARG A  10     -22.935   8.549  47.968  0.00  0.00    +0.255 HD
ATOM     81 HH12 ARG A  10     -22.753   7.105  46.907  0.00  0.00    +0.255 HD
ATOM     82  HE  ARG A  10     -23.726   5.162  47.462  0.00  0.00    +0.259 HD
ENDBRANCH  73  74
ENDBRANCH  72  73
ENDBRANCH  71  72
ENDBRANCH  63  71
ENDBRANCH  60  63
ENDBRANCH  58  59
BRANCH  58  83
ATOM     83  CB  ASN A   9     -23.282  -2.713  47.052  0.00  0.00    +0.114 C 
BRANCH  83  84
ATOM     84  CG  ASN A   9     -24.112  -3.979  47.222  0.00  0.00    +0.222 C 
ATOM     85  OD1 ASN A   9     -25.324  -3.928  47.472  0.00  0.00    -0.275 OA
ATOM     86  ND2 ASN A   9     -23.456  -5.124  47.115  0.00  0.00    -0.329 N 
ATOM     87 HD21 ASN A   9     -23.959  -6.025  47.242  0.00  0.00    +0.145 HD
ATOM     88 HD22 ASN A   9     -22.438  -5.122  46.904  0.00  0.00    +0.145 HD
ENDBRANCH  83  84
ENDBRANCH  58  83
ENDBRANCH  55  58
ENDBRANCH  53  54
BRANCH  53  89
ATOM     89  CB  THR A   8     -20.574  -0.704  42.770  0.00  0.00    +0.137 C 
ATOM     90  CG2 THR A   8     -21.264  -1.081  41.481  0.00  0.00    +0.034 C 
BRANCH  89  91
ATOM     91  OG1 THR A   8     -19.389  -0.028  42.328  0.00  0.00    -0.382 OA
ATOM     92  HG1 THR A   8     -18.870   0.275  43.115  0.00  0.00    +0.210 HD
ENDBRANCH  89  91
ENDBRANCH  53  89
ENDBRANCH  51  53
ENDBRANCH   1  49
BRANCH   1  93
ATOM     93  CB  SER A   7     -19.202   3.162  46.151  0.00  0.00    +0.166 C 
BRANCH  93  94
ATOM     94  OG  SER A   7     -19.773   4.294  45.520  0.00  0.00    -0.380 OA
ATOM     95  H   SER A   7     -19.051   4.883  45.185  0.00  0.00    +0.211 HD
ENDBRANCH  93  94
ENDBRANCH   1  93
TORSDOF 39
REMARK  Name = ../refined-set-2016/3ccw/3ccw_pocket.pdb
REMARK  241 active torsions:
REMARK  status: ('A' for Active; 'I' for Inactive)
REMARK    1  A    between atoms: _1  and  _3
REMARK    2  A    between atoms: _3  and  _4
REMARK    3  A    between atoms: _3  and  _6
REMARK    4  A    between atoms: _6  and  _7
REMARK    5  A    between atoms: _10  and  _12
REMARK    6  A    between atoms: _12  and  _13
REMARK    7  A    between atoms: _12  and  _15
REMARK    8  A    between atoms: _15  and  _16
REMARK    9  A    between atoms: _16  and  _17
REMARK   10  A    between atoms: _20  and  _22
REMARK   11  A    between atoms: _22  and  _23
REMARK   12  A    between atoms: _25  and  _27
REMARK   13  A    between atoms: _27  and  _28
REMARK   14  A    between atoms: _27  and  _30
REMARK   15  A    between atoms: _32  and  _34
REMARK   16  A    between atoms: _34  and  _35
REMARK   17  A    between atoms: _34  and  _37
REMARK   18  A    between atoms: _37  and  _38
REMARK   19  A    between atoms: _41  and  _43
REMARK   20  A    between atoms: _43  and  _44
REMARK   21  A    between atoms: _43  and  _46
REMARK   22  A    between atoms: _49  and  _51
REMARK   23  A    between atoms: _51  and  _52
REMARK   24  A    between atoms: _55  and  _57
REMARK   25  A    between atoms: _57  and  _58
REMARK   26  A    between atoms: _57  and  _60
REMARK   27  A    between atoms: _60  and  _61
REMARK   28  A    between atoms: _63  and  _65
REMARK   29  A    between atoms: _65  and  _66
REMARK   30  A    between atoms: _65  and  _68
REMARK   31  A    between atoms: _68  and  _69
REMARK   32  A    between atoms: _72  and  _74
REMARK   33  A    between atoms: _74  and  _75
REMARK   34  A    between atoms: _74  and  _77
REMARK   35  A    between atoms: _77  and  _78
REMARK   36  A    between atoms: _83  and  _85
REMARK   37  A    between atoms: _85  and  _86
REMARK   38  A    between atoms: _85  and  _88
REMARK   39  A    between atoms: _88  and  _89
REMARK   40  A    between atoms: _89  and  _90
REMARK   41  A    between atoms: _90  and  _91
REMARK   42  A    between atoms: _100  and  _102
REMARK   43  A    between atoms: _102  and  _103
REMARK   44  A    between atoms: _105  and  _107
REMARK   45  A    between atoms: _107  and  _108
REMARK   46  A    between atoms: _107  and  _110
REMARK   47  A    between atoms: _113  and  _115
REMARK   48  A    between atoms: _115  and  _116
REMARK   49  A    between atoms: _115  and  _118
REMARK   50  A    between atoms: _118  and  _119
REMARK   51  A    between atoms: _122  and  _124
REMARK   52  A    between atoms: _124  and  _125
REMARK   53  A    between atoms: _124  and  _127
REMARK   54  A    between atoms: _127  and  _128
REMARK   55  A    between atoms: _128  and  _129
REMARK   56  A    between atoms: _129  and  _130
REMARK   57  A    between atoms: _130  and  _131
REMARK   58  A    between atoms: _135  and  _137
REMARK   59  A    between atoms: _137  and  _138
REMARK   60  A    between atoms: _137  and  _140
REMARK   61  A    between atoms: _140  and  _141
REMARK   62  A    between atoms: _146  and  _148
REMARK   63  A    between atoms: _148  and  _149
REMARK   64  A    between atoms: _148  and  _151
REMARK   65  A    between atoms: _151  and  _152
REMARK   66  A    between atoms: _157  and  _159
REMARK   67  A    between atoms: _159  and  _160
REMARK   68  A    between atoms: _163  and  _165
REMARK   69  A    between atoms: _165  and  _166
REMARK   70  A    between atoms: _165  and  _168
REMARK   71  A    between atoms: _168  and  _169
REMARK   72  A    between atoms: _174  and  _176
REMARK   73  A    between atoms: _176  and  _177
REMARK   74  A    between atoms: _180  and  _182
REMARK   75  A    between atoms: _182  and  _183
REMARK   76  A    between atoms: _186  and  _188
REMARK   77  A    between atoms: _188  and  _189
REMARK   78  A    between atoms: _188  and  _191
REMARK   79  A    between atoms: _191  and  _192
REMARK   80  A    between atoms: _197  and  _199
REMARK   81  A    between atoms: _199  and  _200
REMARK   82  A    between atoms: _199  and  _202
REMARK   83  A    between atoms: _202  and  _203
REMARK   84  A    between atoms: _206  and  _208
REMARK   85  A    between atoms: _208  and  _209
REMARK   86  A    between atoms: _211  and  _213
REMARK   87  A    between atoms: _213  and  _214
REMARK   88  A    between atoms: _213  and  _216
REMARK   89  A    between atoms: _216  and  _217
REMARK   90  A    between atoms: _217  and  _218
REMARK   91  A    between atoms: _221  and  _223
REMARK   92  A    between atoms: _223  and  _224
REMARK   93  A    between atoms: _223  and  _226
REMARK   94  A    between atoms: _226  and  _227
REMARK   95  A    between atoms: _230  and  _232
REMARK   96  A    between atoms: _232  and  _233
REMARK   97  A    between atoms: _232  and  _235
REMARK   98  A    between atoms: _235  and  _236
REMARK   99  A    between atoms: _238  and  _240
REMARK  100  A    between atoms: _240  and  _241
REMARK  101  A    between atoms: _240  and  _243
REMARK  102  A    between atoms: _243  and  _244
REMARK  103  A    between atoms: _247  and  _249
REMARK  104  A    between atoms: _249  and  _250
REMARK  105  A    between atoms: _249  and  _252
REMARK  106  A    between atoms: _252  and  _253
REMARK  107  A    between atoms: _253  and  _254
REMARK  108  A    between atoms: _256  and  _258
REMARK  109  A    between atoms: _258  and  _259
REMARK  110  A    between atoms: _262  and  _264
REMARK  111  A    between atoms: _264  and  _265
REMARK  112  A    between atoms: _268  and  _270
REMARK  113  A    between atoms: _270  and  _271
REMARK  114  A    between atoms: _270  and  _273
REMARK  115  A    between atoms: _273  and  _274
REMARK  116  A    between atoms: _277  and  _279
REMARK  117  A    between atoms: _279  and  _280
REMARK  118  A    between atoms: _279  and  _282
REMARK  119  A    between atoms: _282  and  _283
REMARK  120  A    between atoms: _288  and  _290
REMARK  121  A    between atoms: _290  and  _291
REMARK  122  A    between atoms: _290  and  _293
REMARK  123  A    between atoms: _293  and  _294
REMARK  124  A    between atoms: _294  and  _295
REMARK  125  A    between atoms: _298  and  _300
REMARK  126  A    between atoms: _300  and  _301
REMARK  127  A    between atoms: _300  and  _303
REMARK  128  A    between atoms: _303  and  _304
REMARK  129  A    between atoms: _307  and  _309
REMARK  130  A    between atoms: _309  and  _310
REMARK  131  A    between atoms: _309  and  _312
REMARK  132  A    between atoms: _312  and  _313
REMARK  133  A    between atoms: _313  and  _314
REMARK  134  A    between atoms: _314  and  _315
REMARK  135  A    between atoms: _324  and  _326
REMARK  136  A    between atoms: _326  and  _327
REMARK  137  A    between atoms: _329  and  _331
REMARK  138  A    between atoms: _331  and  _332
REMARK  139  A    between atoms: _331  and  _334
REMARK  140  A    between atoms: _334  and  _335
REMARK  141  A    between atoms: _335  and  _336
REMARK  142  A    between atoms: _338  and  _340
REMARK  143  A    between atoms: _340  and  _341
REMARK  144  A    between atoms: _340  and  _343
REMARK  145  A    between atoms: _343  and  _344
REMARK  146  A    between atoms: _344  and  _345
REMARK  147  A    between atoms: _347  and  _349
REMARK  148  A    between atoms: _349  and  _350
REMARK  149  A    between atoms: _349  and  _352
REMARK  150  A    between atoms: _352  and  _353
REMARK  151  A    between atoms: _358  and  _360
REMARK  152  A    between atoms: _360  and  _361
REMARK  153  A    between atoms: _360  and  _363
REMARK  154  A    between atoms: _363  and  _364
REMARK  155  A    between atoms: _364  and  _365
REMARK  156  A    between atoms: _367  and  _369
REMARK  157  A    between atoms: _369  and  _370
REMARK  158  A    between atoms: _369  and  _372
REMARK  159  A    between atoms: _372  and  _373
REMARK  160  A    between atoms: _376  and  _378
REMARK  161  A    between atoms: _378  and  _379
REMARK  162  A    between atoms: _378  and  _381
REMARK  163  A    between atoms: _381  and  _382
REMARK  164  A    between atoms: _384  and  _386
REMARK  165  A    between atoms: _386  and  _387
REMARK  166  A    between atoms: _386  and  _389
REMARK  167  A    between atoms: _389  and  _390
REMARK  168  A    between atoms: _390  and  _391
REMARK  169  A    between atoms: _391  and  _392
REMARK  170  A    between atoms: _392  and  _393
REMARK  171  A    between atoms: _397  and  _399
REMARK  172  A    between atoms: _399  and  _400
REMARK  173  A    between atoms: _399  and  _402
REMARK  174  A    between atoms: _402  and  _403
REMARK  175  A    between atoms: _406  and  _408
REMARK  176  A    between atoms: _408  and  _409
REMARK  177  A    between atoms: _408  and  _411
REMARK  178  A    between atoms: _411  and  _412
REMARK  179  A    between atoms: _412  and  _413
REMARK  180  A    between atoms: _416  and  _418
REMARK  181  A    between atoms: _418  and  _419
REMARK  182  A    between atoms: _422  and  _424
REMARK  183  A    between atoms: _424  and  _425
REMARK  184  A    between atoms: _424  and  _427
REMARK  185  A    between atoms: _430  and  _432
REMARK  186  A    between atoms: _432  and  _433
REMARK  187  A    between atoms: _432  and  _435
REMARK  188  A    between atoms: _435  and  _436
REMARK  189  A    between atoms: _438  and  _440
REMARK  190  A    between atoms: _440  and  _441
REMARK  191  A    between atoms: _443  and  _445
REMARK  192  A    between atoms: _445  and  _446
REMARK  193  A    between atoms: _445  and  _448
REMARK  194  A    between atoms: _448  and  _449
REMARK  195  A    between atoms: _454  and  _456
REMARK  196  A    between atoms: _456  and  _457
REMARK  197  A    between atoms: _456  and  _459
REMARK  198  A    between atoms: _459  and  _460
REMARK  199  A    between atoms: _465  and  _466
REMARK  200  A    between atoms: _468  and  _470
REMARK  201  A    between atoms: _470  and  _471
REMARK  202  A    between atoms: _470  and  _473
REMARK  203  A    between atoms: _475  and  _477
REMARK  204  A    between atoms: _477  and  _478
REMARK  205  A    between atoms: _477  and  _480
REMARK  206  A    between atoms: _480  and  _481
REMARK  207  A    between atoms: _484  and  _486
REMARK  208  A    between atoms: _486  and  _487
REMARK  209  A    between atoms: _486  and  _489
REMARK  210  A    between atoms: _489  and  _490
REMARK  211  A    between atoms: _493  and  _495
REMARK  212  A    between atoms: _495  and  _496
REMARK  213  A    between atoms: _495  and  _498
REMARK  214  A    between atoms: _498  and  _499
REMARK  215  A    between atoms: _499  and  _500
REMARK  216  A    between atoms: _500  and  _501
REMARK  217  A    between atoms: _501  and  _502
REMARK  218  A    between atoms: _506  and  _508
REMARK  219  A    between atoms: _508  and  _509
REMARK  220  A    between atoms: _508  and  _511
REMARK  221  A    between atoms: _511  and  _512
REMARK  222  A    between atoms: _512  and  _513
REMARK  223  A    between atoms: _513  and  _514
REMARK  224  A    between atoms: _514  and  _515
REMARK  225  A    between atoms: _519  and  _521
REMARK  226  A    between atoms: _521  and  _522
REMARK  227  A    between atoms: _521  and  _524
REMARK  228  A    between atoms: _524  and  _525
REMARK  229  A    between atoms: _525  and  _526
REMARK  230  A    between atoms: _526  and  _527
REMARK  231  A    between atoms: _536  and  _538
REMARK  232  A    between atoms: _538  and  _539
REMARK  233  A    between atoms: _538  and  _541
REMARK  234  A    between atoms: _541  and  _542
REMARK  235  A    between atoms: _545  and  _547
REMARK  236  A    between atoms: _547  and  _548
REMARK  237  A    between atoms: _551  and  _553
REMARK  238  A    between atoms: _553  and  _554
REMARK  239  A    between atoms: _553  and  _556
REMARK  240  A    between atoms: _556  and  _557
REMARK  241  A    between atoms: _557  and  _558
REMARK                            x       y       z     vdW  Elec       q    Type
REMARK                         _______ _______ _______ _____ _____    ______ ____
ROOT
ATOM      1  C   VAL A   1     -29.069   6.595  49.521  0.00  0.00    +0.238 C 
ATOM      2  O   VAL A   1     -27.992   6.281  50.022  0.00  0.00    -0.274 OA
ATOM      3  N   LEU A   2     -29.210   7.609  48.666  0.00  0.00    -0.298 N 
ATOM      4  H   LEU A   2     -30.169   7.896  48.385  0.00  0.00    +0.150 HD
ENDROOT
BRANCH   1   5
ATOM      5  CA  VAL A   1     -30.324   5.803  49.867  0.00  0.00    +0.145 C 
BRANCH   5   6
ATOM      6  CB  VAL A   1     -30.656   4.866  48.689  0.00  0.00    +0.025 C 
ATOM      7  CG2 VAL A   1     -31.850   3.978  49.032  0.00  0.00    +0.002 C 
ATOM      8  CG1 VAL A   1     -29.435   4.015  48.314  0.00  0.00    +0.002 C 
ENDBRANCH   5   6
BRANCH   5   9
ATOM      9  N   VAL A   1     -31.456   6.661  50.210  0.00  0.00    -0.238 NA
ATOM     10  H   VAL A   1     -32.183   6.847  49.490  0.00  0.00    +0.142 HD
ENDBRANCH   5   9
ENDBRANCH   1   5
BRANCH   3  11
ATOM     11  CA  LEU A   2     -28.060   8.338  48.104  0.00  0.00    +0.137 C 
BRANCH  11  12
ATOM     12  C   LEU A   2     -27.693   9.639  48.825  0.00  0.00    +0.227 C 
ATOM     13  O   LEU A   2     -26.683  10.263  48.486  0.00  0.00    -0.286 OA
ENDBRANCH  11  12
BRANCH  11  14
ATOM     14  CB  LEU A   2     -28.291   8.629  46.610  0.00  0.00    +0.028 C 
BRANCH  14  15
ATOM     15  CG  LEU A   2     -28.332   7.402  45.696  0.00  0.00    +0.002 C 
ATOM     16  CD2 LEU A   2     -26.982   6.699  45.669  0.00  0.00    +0.000 C 
ATOM     17  CD1 LEU A   2     -28.777   7.781  44.287  0.00  0.00    +0.000 C 
ENDBRANCH  14  15
ENDBRANCH  11  14
ENDBRANCH   3  11
TORSDOF 7
REMARK  Name = ../refined-set-2016/3ccw/3ccw_pocket.pdb
REMARK  241 active torsions:
REMARK  status: ('A' for Active; 'I' for Inactive)
REMARK    1  A    between atoms: _1  and  _3
REMARK    2  A    between atoms: _3  and  _4
REMARK    3  A    between atoms: _3  and  _6
REMARK    4  A    between atoms: _6  and  _7
REMARK    5  A    between atoms: _10  and  _12
REMARK    6  A    between atoms: _12  and  _13
REMARK    7  A    between atoms: _12  and  _15
REMARK    8  A    between atoms: _15  and  _16
REMARK    9  A    between atoms: _16  and  _17
REMARK   10  A    between atoms: _20  and  _22
REMARK   11  A    between atoms: _22  and  _23
REMARK   12  A    between atoms: _25  and  _27
REMARK   13  A    between atoms: _27  and  _28
REMARK   14  A    between atoms: _27  and  _30
REMARK   15  A    between atoms: _32  and  _34
REMARK   16  A    between atoms: _34  and  _35
REMARK   17  A    between atoms: _34  and  _37
REMARK   18  A    between atoms: _37  and  _38
REMARK   19  A    between atoms: _41  and  _43
REMARK   20  A    between atoms: _43  and  _44
REMARK   21  A    between atoms: _43  and  _46
REMARK   22  A    between atoms: _49  and  _51
REMARK   23  A    between atoms: _51  and  _52
REMARK   24  A    between atoms: _55  and  _57
REMARK   25  A    between atoms: _57  and  _58
REMARK   26  A    between atoms: _57  and  _60
REMARK   27  A    between atoms: _60  and  _61
REMARK   28  A    between atoms: _63  and  _65
REMARK   29  A    between atoms: _65  and  _66
REMARK   30  A    between atoms: _65  and  _68
REMARK   31  A    between atoms: _68  and  _69
REMARK   32  A    between atoms: _72  and  _74
REMARK   33  A    between atoms: _74  and  _75
REMARK   34  A    between atoms: _74  and  _77
REMARK   35  A    between atoms: _77  and  _78
REMARK   36  A    between atoms: _83  and  _85
REMARK   37  A    between atoms: _85  and  _86
REMARK   38  A    between atoms: _85  and  _88
REMARK   39  A    between atoms: _88  and  _89
REMARK   40  A    between atoms: _89  and  _90
REMARK   41  A    between atoms: _90  and  _91
REMARK   42  A    between atoms: _100  and  _102
REMARK   43  A    between atoms: _102  and  _103
REMARK   44  A    between atoms: _105  and  _107
REMARK   45  A    between atoms: _107  and  _108
REMARK   46  A    between atoms: _107  and  _110
REMARK   47  A    between atoms: _113  and  _115
REMARK   48  A    between atoms: _115  and  _116
REMARK   49  A    between atoms: _115  and  _118
REMARK   50  A    between atoms: _118  and  _119
REMARK   51  A    between atoms: _122  and  _124
REMARK   52  A    between atoms: _124  and  _125
REMARK   53  A    between atoms: _124  and  _127
REMARK   54  A    between atoms: _127  and  _128
REMARK   55  A    between atoms: _128  and  _129
REMARK   56  A    between atoms: _129  and  _130
REMARK   57  A    between atoms: _130  and  _131
REMARK   58  A    between atoms: _135  and  _137
REMARK   59  A    between atoms: _137  and  _138
REMARK   60  A    between atoms: _137  and  _140
REMARK   61  A    between atoms: _140  and  _141
REMARK   62  A    between atoms: _146  and  _148
REMARK   63  A    between atoms: _148  and  _149
REMARK   64  A    between atoms: _148  and  _151
REMARK   65  A    between atoms: _151  and  _152
REMARK   66  A    between atoms: _157  and  _159
REMARK   67  A    between atoms: _159  and  _160
REMARK   68  A    between atoms: _163  and  _165
REMARK   69  A    between atoms: _165  and  _166
REMARK   70  A    between atoms: _165  and  _168
REMARK   71  A    between atoms: _168  and  _169
REMARK   72  A    between atoms: _174  and  _176
REMARK   73  A    between atoms: _176  and  _177
REMARK   74  A    between atoms: _180  and  _182
REMARK   75  A    between atoms: _182  and  _183
REMARK   76  A    between atoms: _186  and  _188
REMARK   77  A    between atoms: _188  and  _189
REMARK   78  A    between atoms: _188  and  _191
REMARK   79  A    between atoms: _191  and  _192
REMARK   80  A    between atoms: _197  and  _199
REMARK   81  A    between atoms: _199  and  _200
REMARK   82  A    between atoms: _199  and  _202
REMARK   83  A    between atoms: _202  and  _203
REMARK   84  A    between atoms: _206  and  _208
REMARK   85  A    between atoms: _208  and  _209
REMARK   86  A    between atoms: _211  and  _213
REMARK   87  A    between atoms: _213  and  _214
REMARK   88  A    between atoms: _213  and  _216
REMARK   89  A    between atoms: _216  and  _217
REMARK   90  A    between atoms: _217  and  _218
REMARK   91  A    between atoms: _221  and  _223
REMARK   92  A    between atoms: _223  and  _224
REMARK   93  A    between atoms: _223  and  _226
REMARK   94  A    between atoms: _226  and  _227
REMARK   95  A    between atoms: _230  and  _232
REMARK   96  A    between atoms: _232  and  _233
REMARK   97  A    between atoms: _232  and  _235
REMARK   98  A    between atoms: _235  and  _236
REMARK   99  A    between atoms: _238  and  _240
REMARK  100  A    between atoms: _240  and  _241
REMARK  101  A    between atoms: _240  and  _243
REMARK  102  A    between atoms: _243  and  _244
REMARK  103  A    between atoms: _247  and  _249
REMARK  104  A    between atoms: _249  and  _250
REMARK  105  A    between atoms: _249  and  _252
REMARK  106  A    between atoms: _252  and  _253
REMARK  107  A    between atoms: _253  and  _254
REMARK  108  A    between atoms: _256  and  _258
REMARK  109  A    between atoms: _258  and  _259
REMARK  110  A    between atoms: _262  and  _264
REMARK  111  A    between atoms: _264  and  _265
REMARK  112  A    between atoms: _268  and  _270
REMARK  113  A    between atoms: _270  and  _271
REMARK  114  A    between atoms: _270  and  _273
REMARK  115  A    between atoms: _273  and  _274
REMARK  116  A    between atoms: _277  and  _279
REMARK  117  A    between atoms: _279  and  _280
REMARK  118  A    between atoms: _279  and  _282
REMARK  119  A    between atoms: _282  and  _283
REMARK  120  A    between atoms: _288  and  _290
REMARK  121  A    between atoms: _290  and  _291
REMARK  122  A    between atoms: _290  and  _293
REMARK  123  A    between atoms: _293  and  _294
REMARK  124  A    between atoms: _294  and  _295
REMARK  125  A    between atoms: _298  and  _300
REMARK  126  A    between atoms: _300  and  _301
REMARK  127  A    between atoms: _300  and  _303
REMARK  128  A    between atoms: _303  and  _304
REMARK  129  A    between atoms: _307  and  _309
REMARK  130  A    between atoms: _309  and  _310
REMARK  131  A    between atoms: _309  and  _312
REMARK  132  A    between atoms: _312  and  _313
REMARK  133  A    between atoms: _313  and  _314
REMARK  134  A    between atoms: _314  and  _315
REMARK  135  A    between atoms: _324  and  _326
REMARK  136  A    between atoms: _326  and  _327
REMARK  137  A    between atoms: _329  and  _331
REMARK  138  A    between atoms: _331  and  _332
REMARK  139  A    between atoms: _331  and  _334
REMARK  140  A    between atoms: _334  and  _335
REMARK  141  A    between atoms: _335  and  _336
REMARK  142  A    between atoms: _338  and  _340
REMARK  143  A    between atoms: _340  and  _341
REMARK  144  A    between atoms: _340  and  _343
REMARK  145  A    between atoms: _343  and  _344
REMARK  146  A    between atoms: _344  and  _345
REMARK  147  A    between atoms: _347  and  _349
REMARK  148  A    between atoms: _349  and  _350
REMARK  149  A    between atoms: _349  and  _352
REMARK  150  A    between atoms: _352  and  _353
REMARK  151  A    between atoms: _358  and  _360
REMARK  152  A    between atoms: _360  and  _361
REMARK  153  A    between atoms: _360  and  _363
REMARK  154  A    between atoms: _363  and  _364
REMARK  155  A    between atoms: _364  and  _365
REMARK  156  A    between atoms: _367  and  _369
REMARK  157  A    between atoms: _369  and  _370
REMARK  158  A    between atoms: _369  and  _372
REMARK  159  A    between atoms: _372  and  _373
REMARK  160  A    between atoms: _376  and  _378
REMARK  161  A    between atoms: _378  and  _379
REMARK  162  A    between atoms: _378  and  _381
REMARK  163  A    between atoms: _381  and  _382
REMARK  164  A    between atoms: _384  and  _386
REMARK  165  A    between atoms: _386  and  _387
REMARK  166  A    between atoms: _386  and  _389
REMARK  167  A    between atoms: _389  and  _390
REMARK  168  A    between atoms: _390  and  _391
REMARK  169  A    between atoms: _391  and  _392
REMARK  170  A    between atoms: _392  and  _393
REMARK  171  A    between atoms: _397  and  _399
REMARK  172  A    between atoms: _399  and  _400
REMARK  173  A    between atoms: _399  and  _402
REMARK  174  A    between atoms: _402  and  _403
REMARK  175  A    between atoms: _406  and  _408
REMARK  176  A    between atoms: _408  and  _409
REMARK  177  A    between atoms: _408  and  _411
REMARK  178  A    between atoms: _411  and  _412
REMARK  179  A    between atoms: _412  and  _413
REMARK  180  A    between atoms: _416  and  _418
REMARK  181  A    between atoms: _418  and  _419
REMARK  182  A    between atoms: _422  and  _424
REMARK  183  A    between atoms: _424  and  _425
REMARK  184  A    between atoms: _424  and  _427
REMARK  185  A    between atoms: _430  and  _432
REMARK  186  A    between atoms: _432  and  _433
REMARK  187  A    between atoms: _432  and  _435
REMARK  188  A    between atoms: _435  and  _436
REMARK  189  A    between atoms: _438  and  _440
REMARK  190  A    between atoms: _440  and  _441
REMARK  191  A    between atoms: _443  and  _445
REMARK  192  A    between atoms: _445  and  _446
REMARK  193  A    between atoms: _445  and  _448
REMARK  194  A    between atoms: _448  and  _449
REMARK  195  A    between atoms: _454  and  _456
REMARK  196  A    between atoms: _456  and  _457
REMARK  197  A    between atoms: _456  and  _459
REMARK  198  A    between atoms: _459  and  _460
REMARK  199  A    between atoms: _465  and  _466
REMARK  200  A    between atoms: _468  and  _470
REMARK  201  A    between atoms: _470  and  _471
REMARK  202  A    between atoms: _470  and  _473
REMARK  203  A    between atoms: _475  and  _477
REMARK  204  A    between atoms: _477  and  _478
REMARK  205  A    between atoms: _477  and  _480
REMARK  206  A    between atoms: _480  and  _481
REMARK  207  A    between atoms: _484  and  _486
REMARK  208  A    between atoms: _486  and  _487
REMARK  209  A    between atoms: _486  and  _489
REMARK  210  A    between atoms: _489  and  _490
REMARK  211  A    between atoms: _493  and  _495
REMARK  212  A    between atoms: _495  and  _496
REMARK  213  A    between atoms: _495  and  _498
REMARK  214  A    between atoms: _498  and  _499
REMARK  215  A    between atoms: _499  and  _500
REMARK  216  A    between atoms: _500  and  _501
REMARK  217  A    between atoms: _501  and  _502
REMARK  218  A    between atoms: _506  and  _508
REMARK  219  A    between atoms: _508  and  _509
REMARK  220  A    between atoms: _508  and  _511
REMARK  221  A    between atoms: _511  and  _512
REMARK  222  A    between atoms: _512  and  _513
REMARK  223  A    between atoms: _513  and  _514
REMARK  224  A    between atoms: _514  and  _515
REMARK  225  A    between atoms: _519  and  _521
REMARK  226  A    between atoms: _521  and  _522
REMARK  227  A    between atoms: _521  and  _524
REMARK  228  A    between atoms: _524  and  _525
REMARK  229  A    between atoms: _525  and  _526
REMARK  230  A    between atoms: _526  and  _527
REMARK  231  A    between atoms: _536  and  _538
REMARK  232  A    between atoms: _538  and  _539
REMARK  233  A    between atoms: _538  and  _541
REMARK  234  A    between atoms: _541  and  _542
REMARK  235  A    between atoms: _545  and  _547
REMARK  236  A    between atoms: _547  and  _548
REMARK  237  A    between atoms: _551  and  _553
REMARK  238  A    between atoms: _553  and  _554
REMARK  239  A    between atoms: _553  and  _556
REMARK  240  A    between atoms: _556  and  _557
REMARK  241  A    between atoms: _557  and  _558
REMARK                            x       y       z     vdW  Elec       q    Type
REMARK                         _______ _______ _______ _____ _____    ______ ____
ROOT
ATOM      1  C   LYS A   1     -18.584  16.876  34.604  0.00  0.00    +0.238 C 
ATOM      2  N   ASN A   2     -19.578  16.026  34.404  0.00  0.00    -0.298 N 
ATOM      3  H   ASN A   2     -20.425  16.083  35.004  0.00  0.00    +0.150 HD
ATOM      4  O   LYS A   1     -17.634  16.974  33.843  0.00  0.00    -0.274 OA
ENDROOT
BRANCH   1   5
ATOM      5  CA  LYS A   1     -18.673  17.742  35.859  0.00  0.00    +0.145 C 
BRANCH   5   6
ATOM      6  N   LYS A   1     -19.830  18.632  35.752  0.00  0.00    -0.238 NA
ATOM      7  H   LYS A   1     -20.773  18.244  35.959  0.00  0.00    +0.142 HD
ENDBRANCH   5   6
BRANCH   5   8
ATOM      8  CB  LYS A   1     -18.785  16.850  37.099  0.00  0.00    +0.026 C 
BRANCH   8   9
ATOM      9  CG  LYS A   1     -17.807  15.684  37.197  0.00  0.00    -0.000 C 
BRANCH   9  10
ATOM     10  CD  LYS A   1     -18.282  14.673  38.258  0.00  0.00    -0.024 C 
BRANCH  10  11
ATOM     11  CE  LYS A   1     -17.366  13.459  38.378  0.00  0.00    -0.086 C 
BRANCH  11  12
ATOM     12  NZ  LYS A   1     -15.968  13.815  38.775  0.00  0.00    +0.380 N 
ATOM     13  HZ1 LYS A   1     -15.982  14.292  39.699  0.00  0.00    -0.089 HD
ATOM     14  HZ2 LYS A   1     -15.396  12.949  38.839  0.00  0.00    -0.089 HD
ATOM     15  HZ3 LYS A   1     -15.558  14.451  38.062  0.00  0.00    -0.089 HD
ENDBRANCH  11  12
ENDBRANCH  10  11
ENDBRANCH   9  10
ENDBRANCH   8   9
ENDBRANCH   5   8
ENDBRANCH   1   5
BRANCH   2  16
ATOM     16  CA  ASN A   2     -19.510  15.008  33.356  0.00  0.00    +0.146 C 
BRANCH  16  17
ATOM     17  C   ASN A   2     -19.656  15.521  31.939  0.00  0.00    +0.227 C 
ATOM     18  O   ASN A   2     -19.150  14.889  31.009  0.00  0.00    -0.286 OA
ENDBRANCH  16  17
BRANCH  16  19
ATOM     19  CB  ASN A   2     -20.516  13.894  33.631  0.00  0.00    +0.112 C 
BRANCH  19  20
ATOM     20  CG  ASN A   2     -20.059  12.978  34.731  0.00  0.00    +0.222 C 
ATOM     21  ND2 ASN A   2     -20.977  12.171  35.265  0.00  0.00    -0.329 N 
ATOM     22 HD21 ASN A   2     -20.714  11.519  36.032  0.00  0.00    +0.145 HD
ATOM     23 HD22 ASN A   2     -21.956  12.193  34.915  0.00  0.00    +0.145 HD
ATOM     24  OD1 ASN A   2     -18.883  12.996  35.105  0.00  0.00    -0.275 OA
ENDBRANCH  19  20
ENDBRANCH  16  19
ENDBRANCH   2  16
TORSDOF 11
REMARK  Name = ../refined-set-2016/3ccw/3ccw_pocket.pdb
REMARK  241 active torsions:
REMARK  status: ('A' for Active; 'I' for Inactive)
REMARK    1  A    between atoms: _1  and  _3
REMARK    2  A    between atoms: _3  and  _4
REMARK    3  A    between atoms: _3  and  _6
REMARK    4  A    between atoms: _6  and  _7
REMARK    5  A    between atoms: _10  and  _12
REMARK    6  A    between atoms: _12  and  _13
REMARK    7  A    between atoms: _12  and  _15
REMARK    8  A    between atoms: _15  and  _16
REMARK    9  A    between atoms: _16  and  _17
REMARK   10  A    between atoms: _20  and  _22
REMARK   11  A    between atoms: _22  and  _23
REMARK   12  A    between atoms: _25  and  _27
REMARK   13  A    between atoms: _27  and  _28
REMARK   14  A    between atoms: _27  and  _30
REMARK   15  A    between atoms: _32  and  _34
REMARK   16  A    between atoms: _34  and  _35
REMARK   17  A    between atoms: _34  and  _37
REMARK   18  A    between atoms: _37  and  _38
REMARK   19  A    between atoms: _41  and  _43
REMARK   20  A    between atoms: _43  and  _44
REMARK   21  A    between atoms: _43  and  _46
REMARK   22  A    between atoms: _49  and  _51
REMARK   23  A    between atoms: _51  and  _52
REMARK   24  A    between atoms: _55  and  _57
REMARK   25  A    between atoms: _57  and  _58
REMARK   26  A    between atoms: _57  and  _60
REMARK   27  A    between atoms: _60  and  _61
REMARK   28  A    between atoms: _63  and  _65
REMARK   29  A    between atoms: _65  and  _66
REMARK   30  A    between atoms: _65  and  _68
REMARK   31  A    between atoms: _68  and  _69
REMARK   32  A    between atoms: _72  and  _74
REMARK   33  A    between atoms: _74  and  _75
REMARK   34  A    between atoms: _74  and  _77
REMARK   35  A    between atoms: _77  and  _78
REMARK   36  A    between atoms: _83  and  _85
REMARK   37  A    between atoms: _85  and  _86
REMARK   38  A    between atoms: _85  and  _88
REMARK   39  A    between atoms: _88  and  _89
REMARK   40  A    between atoms: _89  and  _90
REMARK   41  A    between atoms: _90  and  _91
REMARK   42  A    between atoms: _100  and  _102
REMARK   43  A    between atoms: _102  and  _103
REMARK   44  A    between atoms: _105  and  _107
REMARK   45  A    between atoms: _107  and  _108
REMARK   46  A    between atoms: _107  and  _110
REMARK   47  A    between atoms: _113  and  _115
REMARK   48  A    between atoms: _115  and  _116
REMARK   49  A    between atoms: _115  and  _118
REMARK   50  A    between atoms: _118  and  _119
REMARK   51  A    between atoms: _122  and  _124
REMARK   52  A    between atoms: _124  and  _125
REMARK   53  A    between atoms: _124  and  _127
REMARK   54  A    between atoms: _127  and  _128
REMARK   55  A    between atoms: _128  and  _129
REMARK   56  A    between atoms: _129  and  _130
REMARK   57  A    between atoms: _130  and  _131
REMARK   58  A    between atoms: _135  and  _137
REMARK   59  A    between atoms: _137  and  _138
REMARK   60  A    between atoms: _137  and  _140
REMARK   61  A    between atoms: _140  and  _141
REMARK   62  A    between atoms: _146  and  _148
REMARK   63  A    between atoms: _148  and  _149
REMARK   64  A    between atoms: _148  and  _151
REMARK   65  A    between atoms: _151  and  _152
REMARK   66  A    between atoms: _157  and  _159
REMARK   67  A    between atoms: _159  and  _160
REMARK   68  A    between atoms: _163  and  _165
REMARK   69  A    between atoms: _165  and  _166
REMARK   70  A    between atoms: _165  and  _168
REMARK   71  A    between atoms: _168  and  _169
REMARK   72  A    between atoms: _174  and  _176
REMARK   73  A    between atoms: _176  and  _177
REMARK   74  A    between atoms: _180  and  _182
REMARK   75  A    between atoms: _182  and  _183
REMARK   76  A    between atoms: _186  and  _188
REMARK   77  A    between atoms: _188  and  _189
REMARK   78  A    between atoms: _188  and  _191
REMARK   79  A    between atoms: _191  and  _192
REMARK   80  A    between atoms: _197  and  _199
REMARK   81  A    between atoms: _199  and  _200
REMARK   82  A    between atoms: _199  and  _202
REMARK   83  A    between atoms: _202  and  _203
REMARK   84  A    between atoms: _206  and  _208
REMARK   85  A    between atoms: _208  and  _209
REMARK   86  A    between atoms: _211  and  _213
REMARK   87  A    between atoms: _213  and  _214
REMARK   88  A    between atoms: _213  and  _216
REMARK   89  A    between atoms: _216  and  _217
REMARK   90  A    between atoms: _217  and  _218
REMARK   91  A    between atoms: _221  and  _223
REMARK   92  A    between atoms: _223  and  _224
REMARK   93  A    between atoms: _223  and  _226
REMARK   94  A    between atoms: _226  and  _227
REMARK   95  A    between atoms: _230  and  _232
REMARK   96  A    between atoms: _232  and  _233
REMARK   97  A    between atoms: _232  and  _235
REMARK   98  A    between atoms: _235  and  _236
REMARK   99  A    between atoms: _238  and  _240
REMARK  100  A    between atoms: _240  and  _241
REMARK  101  A    between atoms: _240  and  _243
REMARK  102  A    between atoms: _243  and  _244
REMARK  103  A    between atoms: _247  and  _249
REMARK  104  A    between atoms: _249  and  _250
REMARK  105  A    between atoms: _249  and  _252
REMARK  106  A    between atoms: _252  and  _253
REMARK  107  A    between atoms: _253  and  _254
REMARK  108  A    between atoms: _256  and  _258
REMARK  109  A    between atoms: _258  and  _259
REMARK  110  A    between atoms: _262  and  _264
REMARK  111  A    between atoms: _264  and  _265
REMARK  112  A    between atoms: _268  and  _270
REMARK  113  A    between atoms: _270  and  _271
REMARK  114  A    between atoms: _270  and  _273
REMARK  115  A    between atoms: _273  and  _274
REMARK  116  A    between atoms: _277  and  _279
REMARK  117  A    between atoms: _279  and  _280
REMARK  118  A    between atoms: _279  and  _282
REMARK  119  A    between atoms: _282  and  _283
REMARK  120  A    between atoms: _288  and  _290
REMARK  121  A    between atoms: _290  and  _291
REMARK  122  A    between atoms: _290  and  _293
REMARK  123  A    between atoms: _293  and  _294
REMARK  124  A    between atoms: _294  and  _295
REMARK  125  A    between atoms: _298  and  _300
REMARK  126  A    between atoms: _300  and  _301
REMARK  127  A    between atoms: _300  and  _303
REMARK  128  A    between atoms: _303  and  _304
REMARK  129  A    between atoms: _307  and  _309
REMARK  130  A    between atoms: _309  and  _310
REMARK  131  A    between atoms: _309  and  _312
REMARK  132  A    between atoms: _312  and  _313
REMARK  133  A    between atoms: _313  and  _314
REMARK  134  A    between atoms: _314  and  _315
REMARK  135  A    between atoms: _324  and  _326
REMARK  136  A    between atoms: _326  and  _327
REMARK  137  A    between atoms: _329  and  _331
REMARK  138  A    between atoms: _331  and  _332
REMARK  139  A    between atoms: _331  and  _334
REMARK  140  A    between atoms: _334  and  _335
REMARK  141  A    between atoms: _335  and  _336
REMARK  142  A    between atoms: _338  and  _340
REMARK  143  A    between atoms: _340  and  _341
REMARK  144  A    between atoms: _340  and  _343
REMARK  145  A    between atoms: _343  and  _344
REMARK  146  A    between atoms: _344  and  _345
REMARK  147  A    between atoms: _347  and  _349
REMARK  148  A    between atoms: _349  and  _350
REMARK  149  A    between atoms: _349  and  _352
REMARK  150  A    between atoms: _352  and  _353
REMARK  151  A    between atoms: _358  and  _360
REMARK  152  A    between atoms: _360  and  _361
REMARK  153  A    between atoms: _360  and  _363
REMARK  154  A    between atoms: _363  and  _364
REMARK  155  A    between atoms: _364  and  _365
REMARK  156  A    between atoms: _367  and  _369
REMARK  157  A    between atoms: _369  and  _370
REMARK  158  A    between atoms: _369  and  _372
REMARK  159  A    between atoms: _372  and  _373
REMARK  160  A    between atoms: _376  and  _378
REMARK  161  A    between atoms: _378  and  _379
REMARK  162  A    between atoms: _378  and  _381
REMARK  163  A    between atoms: _381  and  _382
REMARK  164  A    between atoms: _384  and  _386
REMARK  165  A    between atoms: _386  and  _387
REMARK  166  A    between atoms: _386  and  _389
REMARK  167  A    between atoms: _389  and  _390
REMARK  168  A    between atoms: _390  and  _391
REMARK  169  A    between atoms: _391  and  _392
REMARK  170  A    between atoms: _392  and  _393
REMARK  171  A    between atoms: _397  and  _399
REMARK  172  A    between atoms: _399  and  _400
REMARK  173  A    between atoms: _399  and  _402
REMARK  174  A    between atoms: _402  and  _403
REMARK  175  A    between atoms: _406  and  _408
REMARK  176  A    between atoms: _408  and  _409
REMARK  177  A    between atoms: _408  and  _411
REMARK  178  A    between atoms: _411  and  _412
REMARK  179  A    between atoms: _412  and  _413
REMARK  180  A    between atoms: _416  and  _418
REMARK  181  A    between atoms: _418  and  _419
REMARK  182  A    between atoms: _422  and  _424
REMARK  183  A    between atoms: _424  and  _425
REMARK  184  A    between atoms: _424  and  _427
REMARK  185  A    between atoms: _430  and  _432
REMARK  186  A    between atoms: _432  and  _433
REMARK  187  A    between atoms: _432  and  _435
REMARK  188  A    between atoms: _435  and  _436
REMARK  189  A    between atoms: _438  and  _440
REMARK  190  A    between atoms: _440  and  _441
REMARK  191  A    between atoms: _443  and  _445
REMARK  192  A    between atoms: _445  and  _446
REMARK  193  A    between atoms: _445  and  _448
REMARK  194  A    between atoms: _448  and  _449
REMARK  195  A    between atoms: _454  and  _456
REMARK  196  A    between atoms: _456  and  _457
REMARK  197  A    between atoms: _456  and  _459
REMARK  198  A    between atoms: _459  and  _460
REMARK  199  A    between atoms: _465  and  _466
REMARK  200  A    between atoms: _468  and  _470
REMARK  201  A    between atoms: _470  and  _471
REMARK  202  A    between atoms: _470  and  _473
REMARK  203  A    between atoms: _475  and  _477
REMARK  204  A    between atoms: _477  and  _478
REMARK  205  A    between atoms: _477  and  _480
REMARK  206  A    between atoms: _480  and  _481
REMARK  207  A    between atoms: _484  and  _486
REMARK  208  A    between atoms: _486  and  _487
REMARK  209  A    between atoms: _486  and  _489
REMARK  210  A    between atoms: _489  and  _490
REMARK  211  A    between atoms: _493  and  _495
REMARK  212  A    between atoms: _495  and  _496
REMARK  213  A    between atoms: _495  and  _498
REMARK  214  A    between atoms: _498  and  _499
REMARK  215  A    between atoms: _499  and  _500
REMARK  216  A    between atoms: _500  and  _501
REMARK  217  A    between atoms: _501  and  _502
REMARK  218  A    between atoms: _506  and  _508
REMARK  219  A    between atoms: _508  and  _509
REMARK  220  A    between atoms: _508  and  _511
REMARK  221  A    between atoms: _511  and  _512
REMARK  222  A    between atoms: _512  and  _513
REMARK  223  A    between atoms: _513  and  _514
REMARK  224  A    between atoms: _514  and  _515
REMARK  225  A    between atoms: _519  and  _521
REMARK  226  A    between atoms: _521  and  _522
REMARK  227  A    between atoms: _521  and  _524
REMARK  228  A    between atoms: _524  and  _525
REMARK  229  A    between atoms: _525  and  _526
REMARK  230  A    between atoms: _526  and  _527
REMARK  231  A    between atoms: _536  and  _538
REMARK  232  A    between atoms: _538  and  _539
REMARK  233  A    between atoms: _538  and  _541
REMARK  234  A    between atoms: _541  and  _542
REMARK  235  A    between atoms: _545  and  _547
REMARK  236  A    between atoms: _547  and  _548
REMARK  237  A    between atoms: _551  and  _553
REMARK  238  A    between atoms: _553  and  _554
REMARK  239  A    between atoms: _553  and  _556
REMARK  240  A    between atoms: _556  and  _557
REMARK  241  A    between atoms: _557  and  _558
REMARK                            x       y       z     vdW  Elec       q    Type
REMARK                         _______ _______ _______ _____ _____    ______ ____
ROOT
ATOM      1  C   HIS A   3     -16.084   5.211  36.335  0.00  0.00    +0.241 C 
ATOM      2  O   HIS A   3     -15.873   4.172  36.929  0.00  0.00    -0.273 OA
ATOM      3  N   ALA A   4     -16.633   5.228  35.128  0.00  0.00    -0.297 N 
ATOM      4  H   ALA A   4     -16.803   6.139  34.656  0.00  0.00    +0.150 HD
ENDROOT
BRANCH   3   5
ATOM      5  CA  ALA A   4     -17.003   3.985  34.449  0.00  0.00    +0.149 C 
ATOM      6  CB  ALA A   4     -17.524   4.269  33.041  0.00  0.00    +0.031 C 
BRANCH   5   7
ATOM      7  C   ALA A   4     -15.831   3.004  34.396  0.00  0.00    +0.241 C 
ATOM      8  O   ALA A   4     -16.023   1.806  34.533  0.00  0.00    -0.273 OA
ATOM      9  N   ALA A   5     -14.623   3.531  34.225  0.00  0.00    -0.297 N 
ATOM     10  H   ALA A   5     -14.548   4.558  34.079  0.00  0.00    +0.150 HD
BRANCH   9  11
ATOM     11  CA  ALA A   5     -13.394   2.737  34.232  0.00  0.00    +0.149 C 
ATOM     12  CB  ALA A   5     -12.182   3.651  34.048  0.00  0.00    +0.031 C 
BRANCH  11  13
ATOM     13  C   ALA A   5     -13.219   1.859  35.482  0.00  0.00    +0.241 C 
ATOM     14  N   ASN A   6     -13.493   2.394  36.668  0.00  0.00    -0.297 N 
ATOM     15  H   ASN A   6     -13.741   3.402  36.727  0.00  0.00    +0.150 HD
ATOM     16  O   ALA A   5     -12.829   0.712  35.369  0.00  0.00    -0.273 OA
BRANCH  14  17
ATOM     17  CA  ASN A   6     -13.452   1.589  37.899  0.00  0.00    +0.158 C 
BRANCH  17  18
ATOM     18  C   ASN A   6     -14.269   0.307  37.817  0.00  0.00    +0.241 C 
ATOM     19  O   ASN A   6     -13.807  -0.766  38.209  0.00  0.00    -0.273 OA
ATOM     20  N   ILE A   7     -15.492   0.427  37.321  0.00  0.00    -0.298 N 
ATOM     21  H   ILE A   7     -15.809   1.359  36.986  0.00  0.00    +0.150 HD
BRANCH  20  22
ATOM     22  CA  ILE A   7     -16.408  -0.705  37.229  0.00  0.00    +0.137 C 
BRANCH  22  23
ATOM     23  C   ILE A   7     -16.018  -1.665  36.093  0.00  0.00    +0.227 C 
ATOM     24  O   ILE A   7     -16.020  -2.886  36.265  0.00  0.00    -0.286 OA
ENDBRANCH  22  23
BRANCH  22  25
ATOM     25  CB  ILE A   7     -17.859  -0.200  37.063  0.00  0.00    +0.026 C 
ATOM     26  CG2 ILE A   7     -18.745  -1.272  36.448  0.00  0.00    +0.002 C 
BRANCH  25  27
ATOM     27  CG1 ILE A   7     -18.445   0.193  38.426  0.00  0.00    +0.002 C 
ATOM     28  CD1 ILE A   7     -17.797   1.404  39.073  0.00  0.00    +0.000 C 
ENDBRANCH  25  27
ENDBRANCH  22  25
ENDBRANCH  20  22
ENDBRANCH  17  18
BRANCH  17  29
ATOM     29  CB  ASN A   6     -13.964   2.397  39.106  0.00  0.00    +0.114 C 
BRANCH  29  30
ATOM     30  CG  ASN A   6     -12.881   3.208  39.780  0.00  0.00    +0.222 C 
ATOM     31  ND2 ASN A   6     -13.300   4.187  40.590  0.00  0.00    -0.329 N 
ATOM     32 HD21 ASN A   6     -12.608   4.773  41.098  0.00  0.00    +0.145 HD
ATOM     33 HD22 ASN A   6     -14.318   4.362  40.711  0.00  0.00    +0.145 HD
ATOM     34  OD1 ASN A   6     -11.683   2.957  39.599  0.00  0.00    -0.275 OA
ENDBRANCH  29  30
ENDBRANCH  17  29
ENDBRANCH  14  17
ENDBRANCH  11  13
ENDBRANCH   9  11
ENDBRANCH   5   7
ENDBRANCH   3   5
BRANCH   1  35
ATOM     35  CA  HIS A   3     -15.693   6.564  36.949  0.00  0.00    +0.155 C 
BRANCH  35  38
ATOM     36  C   ALA A   2     -16.343   8.885  36.778  0.00  0.00    +0.241 C 
ATOM     37  O   ALA A   2     -15.175   9.226  36.941  0.00  0.00    -0.273 OA
ATOM     38  N   HIS A   3     -16.705   7.607  36.765  0.00  0.00    -0.297 N 
ATOM     39  H   HIS A   3     -17.702   7.348  36.625  0.00  0.00    +0.150 HD
BRANCH  36  40
ATOM     40  CA  ALA A   2     -17.432   9.934  36.580  0.00  0.00    +0.149 C 
ATOM     41  CB  ALA A   2     -18.442   9.894  37.743  0.00  0.00    +0.031 C 
BRANCH  40  43
ATOM     42  C   ASN A   1     -17.731  10.365  34.192  0.00  0.00    +0.239 C 
ATOM     43  N   ALA A   2     -18.127   9.765  35.308  0.00  0.00    -0.297 N 
ATOM     44  H   ALA A   2     -18.965   9.150  35.274  0.00  0.00    +0.150 HD
ATOM     45  O   ASN A   1     -16.691  11.015  34.119  0.00  0.00    -0.274 OA
BRANCH  42  46
ATOM     46  CA  ASN A   1     -18.639  10.203  32.966  0.00  0.00    +0.154 C 
BRANCH  46  47
ATOM     47  N   ASN A   1     -18.171  11.032  31.863  0.00  0.00    -0.238 NA
ATOM     48  H   ASN A   1     -17.175  11.331  31.859  0.00  0.00    +0.142 HD
ENDBRANCH  46  47
BRANCH  46  49
ATOM     49  CB  ASN A   1     -18.716   8.733  32.533  0.00  0.00    +0.111 C 
BRANCH  49  50
ATOM     50  CG  ASN A   1     -17.345   8.125  32.268  0.00  0.00    +0.221 C 
ATOM     51  OD1 ASN A   1     -16.718   7.579  33.172  0.00  0.00    -0.275 OA
ATOM     52  ND2 ASN A   1     -16.883   8.211  31.027  0.00  0.00    -0.329 N 
ATOM     53 HD21 ASN A   1     -15.955   7.807  30.788  0.00  0.00    +0.145 HD
ATOM     54 HD22 ASN A   1     -17.449   8.683  30.293  0.00  0.00    +0.145 HD
ENDBRANCH  49  50
ENDBRANCH  46  49
ENDBRANCH  42  46
ENDBRANCH  40  43
ENDBRANCH  36  40
ENDBRANCH  35  38
BRANCH  35  55
ATOM     55  CB  HIS A   3     -15.322   6.436  38.448  0.00  0.00    +0.076 C 
BRANCH  55  56
ATOM     56  CG  HIS A   3     -16.374   5.772  39.280  0.00  0.00    +0.082 A 
ATOM     57  ND1 HIS A   3     -16.095   4.718  40.120  0.00  0.00    -0.227 NA
ATOM     58  CE1 HIS A   3     -17.209   4.320  40.713  0.00  0.00    +0.199 A 
ATOM     59  NE2 HIS A   3     -18.201   5.080  40.288  0.00  0.00    -0.221 NA
ATOM     60  CD2 HIS A   3     -17.706   5.998  39.391  0.00  0.00    +0.115 A 
ENDBRANCH  55  56
ENDBRANCH  35  55
ENDBRANCH   1  35
TORSDOF 22
REMARK  Name = ../refined-set-2016/3ccw/3ccw_pocket.pdb
REMARK  241 active torsions:
REMARK  status: ('A' for Active; 'I' for Inactive)
REMARK    1  A    between atoms: _1  and  _3
REMARK    2  A    between atoms: _3  and  _4
REMARK    3  A    between atoms: _3  and  _6
REMARK    4  A    between atoms: _6  and  _7
REMARK    5  A    between atoms: _10  and  _12
REMARK    6  A    between atoms: _12  and  _13
REMARK    7  A    between atoms: _12  and  _15
REMARK    8  A    between atoms: _15  and  _16
REMARK    9  A    between atoms: _16  and  _17
REMARK   10  A    between atoms: _20  and  _22
REMARK   11  A    between atoms: _22  and  _23
REMARK   12  A    between atoms: _25  and  _27
REMARK   13  A    between atoms: _27  and  _28
REMARK   14  A    between atoms: _27  and  _30
REMARK   15  A    between atoms: _32  and  _34
REMARK   16  A    between atoms: _34  and  _35
REMARK   17  A    between atoms: _34  and  _37
REMARK   18  A    between atoms: _37  and  _38
REMARK   19  A    between atoms: _41  and  _43
REMARK   20  A    between atoms: _43  and  _44
REMARK   21  A    between atoms: _43  and  _46
REMARK   22  A    between atoms: _49  and  _51
REMARK   23  A    between atoms: _51  and  _52
REMARK   24  A    between atoms: _55  and  _57
REMARK   25  A    between atoms: _57  and  _58
REMARK   26  A    between atoms: _57  and  _60
REMARK   27  A    between atoms: _60  and  _61
REMARK   28  A    between atoms: _63  and  _65
REMARK   29  A    between atoms: _65  and  _66
REMARK   30  A    between atoms: _65  and  _68
REMARK   31  A    between atoms: _68  and  _69
REMARK   32  A    between atoms: _72  and  _74
REMARK   33  A    between atoms: _74  and  _75
REMARK   34  A    between atoms: _74  and  _77
REMARK   35  A    between atoms: _77  and  _78
REMARK   36  A    between atoms: _83  and  _85
REMARK   37  A    between atoms: _85  and  _86
REMARK   38  A    between atoms: _85  and  _88
REMARK   39  A    between atoms: _88  and  _89
REMARK   40  A    between atoms: _89  and  _90
REMARK   41  A    between atoms: _90  and  _91
REMARK   42  A    between atoms: _100  and  _102
REMARK   43  A    between atoms: _102  and  _103
REMARK   44  A    between atoms: _105  and  _107
REMARK   45  A    between atoms: _107  and  _108
REMARK   46  A    between atoms: _107  and  _110
REMARK   47  A    between atoms: _113  and  _115
REMARK   48  A    between atoms: _115  and  _116
REMARK   49  A    between atoms: _115  and  _118
REMARK   50  A    between atoms: _118  and  _119
REMARK   51  A    between atoms: _122  and  _124
REMARK   52  A    between atoms: _124  and  _125
REMARK   53  A    between atoms: _124  and  _127
REMARK   54  A    between atoms: _127  and  _128
REMARK   55  A    between atoms: _128  and  _129
REMARK   56  A    between atoms: _129  and  _130
REMARK   57  A    between atoms: _130  and  _131
REMARK   58  A    between atoms: _135  and  _137
REMARK   59  A    between atoms: _137  and  _138
REMARK   60  A    between atoms: _137  and  _140
REMARK   61  A    between atoms: _140  and  _141
REMARK   62  A    between atoms: _146  and  _148
REMARK   63  A    between atoms: _148  and  _149
REMARK   64  A    between atoms: _148  and  _151
REMARK   65  A    between atoms: _151  and  _152
REMARK   66  A    between atoms: _157  and  _159
REMARK   67  A    between atoms: _159  and  _160
REMARK   68  A    between atoms: _163  and  _165
REMARK   69  A    between atoms: _165  and  _166
REMARK   70  A    between atoms: _165  and  _168
REMARK   71  A    between atoms: _168  and  _169
REMARK   72  A    between atoms: _174  and  _176
REMARK   73  A    between atoms: _176  and  _177
REMARK   74  A    between atoms: _180  and  _182
REMARK   75  A    between atoms: _182  and  _183
REMARK   76  A    between atoms: _186  and  _188
REMARK   77  A    between atoms: _188  and  _189
REMARK   78  A    between atoms: _188  and  _191
REMARK   79  A    between atoms: _191  and  _192
REMARK   80  A    between atoms: _197  and  _199
REMARK   81  A    between atoms: _199  and  _200
REMARK   82  A    between atoms: _199  and  _202
REMARK   83  A    between atoms: _202  and  _203
REMARK   84  A    between atoms: _206  and  _208
REMARK   85  A    between atoms: _208  and  _209
REMARK   86  A    between atoms: _211  and  _213
REMARK   87  A    between atoms: _213  and  _214
REMARK   88  A    between atoms: _213  and  _216
REMARK   89  A    between atoms: _216  and  _217
REMARK   90  A    between atoms: _217  and  _218
REMARK   91  A    between atoms: _221  and  _223
REMARK   92  A    between atoms: _223  and  _224
REMARK   93  A    between atoms: _223  and  _226
REMARK   94  A    between atoms: _226  and  _227
REMARK   95  A    between atoms: _230  and  _232
REMARK   96  A    between atoms: _232  and  _233
REMARK   97  A    between atoms: _232  and  _235
REMARK   98  A    between atoms: _235  and  _236
REMARK   99  A    between atoms: _238  and  _240
REMARK  100  A    between atoms: _240  and  _241
REMARK  101  A    between atoms: _240  and  _243
REMARK  102  A    between atoms: _243  and  _244
REMARK  103  A    between atoms: _247  and  _249
REMARK  104  A    between atoms: _249  and  _250
REMARK  105  A    between atoms: _249  and  _252
REMARK  106  A    between atoms: _252  and  _253
REMARK  107  A    between atoms: _253  and  _254
REMARK  108  A    between atoms: _256  and  _258
REMARK  109  A    between atoms: _258  and  _259
REMARK  110  A    between atoms: _262  and  _264
REMARK  111  A    between atoms: _264  and  _265
REMARK  112  A    between atoms: _268  and  _270
REMARK  113  A    between atoms: _270  and  _271
REMARK  114  A    between atoms: _270  and  _273
REMARK  115  A    between atoms: _273  and  _274
REMARK  116  A    between atoms: _277  and  _279
REMARK  117  A    between atoms: _279  and  _280
REMARK  118  A    between atoms: _279  and  _282
REMARK  119  A    between atoms: _282  and  _283
REMARK  120  A    between atoms: _288  and  _290
REMARK  121  A    between atoms: _290  and  _291
REMARK  122  A    between atoms: _290  and  _293
REMARK  123  A    between atoms: _293  and  _294
REMARK  124  A    between atoms: _294  and  _295
REMARK  125  A    between atoms: _298  and  _300
REMARK  126  A    between atoms: _300  and  _301
REMARK  127  A    between atoms: _300  and  _303
REMARK  128  A    between atoms: _303  and  _304
REMARK  129  A    between atoms: _307  and  _309
REMARK  130  A    between atoms: _309  and  _310
REMARK  131  A    between atoms: _309  and  _312
REMARK  132  A    between atoms: _312  and  _313
REMARK  133  A    between atoms: _313  and  _314
REMARK  134  A    between atoms: _314  and  _315
REMARK  135  A    between atoms: _324  and  _326
REMARK  136  A    between atoms: _326  and  _327
REMARK  137  A    between atoms: _329  and  _331
REMARK  138  A    between atoms: _331  and  _332
REMARK  139  A    between atoms: _331  and  _334
REMARK  140  A    between atoms: _334  and  _335
REMARK  141  A    between atoms: _335  and  _336
REMARK  142  A    between atoms: _338  and  _340
REMARK  143  A    between atoms: _340  and  _341
REMARK  144  A    between atoms: _340  and  _343
REMARK  145  A    between atoms: _343  and  _344
REMARK  146  A    between atoms: _344  and  _345
REMARK  147  A    between atoms: _347  and  _349
REMARK  148  A    between atoms: _349  and  _350
REMARK  149  A    between atoms: _349  and  _352
REMARK  150  A    between atoms: _352  and  _353
REMARK  151  A    between atoms: _358  and  _360
REMARK  152  A    between atoms: _360  and  _361
REMARK  153  A    between atoms: _360  and  _363
REMARK  154  A    between atoms: _363  and  _364
REMARK  155  A    between atoms: _364  and  _365
REMARK  156  A    between atoms: _367  and  _369
REMARK  157  A    between atoms: _369  and  _370
REMARK  158  A    between atoms: _369  and  _372
REMARK  159  A    between atoms: _372  and  _373
REMARK  160  A    between atoms: _376  and  _378
REMARK  161  A    between atoms: _378  and  _379
REMARK  162  A    between atoms: _378  and  _381
REMARK  163  A    between atoms: _381  and  _382
REMARK  164  A    between atoms: _384  and  _386
REMARK  165  A    between atoms: _386  and  _387
REMARK  166  A    between atoms: _386  and  _389
REMARK  167  A    between atoms: _389  and  _390
REMARK  168  A    between atoms: _390  and  _391
REMARK  169  A    between atoms: _391  and  _392
REMARK  170  A    between atoms: _392  and  _393
REMARK  171  A    between atoms: _397  and  _399
REMARK  172  A    between atoms: _399  and  _400
REMARK  173  A    between atoms: _399  and  _402
REMARK  174  A    between atoms: _402  and  _403
REMARK  175  A    between atoms: _406  and  _408
REMARK  176  A    between atoms: _408  and  _409
REMARK  177  A    between atoms: _408  and  _411
REMARK  178  A    between atoms: _411  and  _412
REMARK  179  A    between atoms: _412  and  _413
REMARK  180  A    between atoms: _416  and  _418
REMARK  181  A    between atoms: _418  and  _419
REMARK  182  A    between atoms: _422  and  _424
REMARK  183  A    between atoms: _424  and  _425
REMARK  184  A    between atoms: _424  and  _427
REMARK  185  A    between atoms: _430  and  _432
REMARK  186  A    between atoms: _432  and  _433
REMARK  187  A    between atoms: _432  and  _435
REMARK  188  A    between atoms: _435  and  _436
REMARK  189  A    between atoms: _438  and  _440
REMARK  190  A    between atoms: _440  and  _441
REMARK  191  A    between atoms: _443  and  _445
REMARK  192  A    between atoms: _445  and  _446
REMARK  193  A    between atoms: _445  and  _448
REMARK  194  A    between atoms: _448  and  _449
REMARK  195  A    between atoms: _454  and  _456
REMARK  196  A    between atoms: _456  and  _457
REMARK  197  A    between atoms: _456  and  _459
REMARK  198  A    between atoms: _459  and  _460
REMARK  199  A    between atoms: _465  and  _466
REMARK  200  A    between atoms: _468  and  _470
REMARK  201  A    between atoms: _470  and  _471
REMARK  202  A    between atoms: _470  and  _473
REMARK  203  A    between atoms: _475  and  _477
REMARK  204  A    between atoms: _477  and  _478
REMARK  205  A    between atoms: _477  and  _480
REMARK  206  A    between atoms: _480  and  _481
REMARK  207  A    between atoms: _484  and  _486
REMARK  208  A    between atoms: _486  and  _487
REMARK  209  A    between atoms: _486  and  _489
REMARK  210  A    between atoms: _489  and  _490
REMARK  211  A    between atoms: _493  and  _495
REMARK  212  A    between atoms: _495  and  _496
REMARK  213  A    between atoms: _495  and  _498
REMARK  214  A    between atoms: _498  and  _499
REMARK  215  A    between atoms: _499  and  _500
REMARK  216  A    between atoms: _500  and  _501
REMARK  217  A    between atoms: _501  and  _502
REMARK  218  A    between atoms: _506  and  _508
REMARK  219  A    between atoms: _508  and  _509
REMARK  220  A    between atoms: _508  and  _511
REMARK  221  A    between atoms: _511  and  _512
REMARK  222  A    between atoms: _512  and  _513
REMARK  223  A    between atoms: _513  and  _514
REMARK  224  A    between atoms: _514  and  _515
REMARK  225  A    between atoms: _519  and  _521
REMARK  226  A    between atoms: _521  and  _522
REMARK  227  A    between atoms: _521  and  _524
REMARK  228  A    between atoms: _524  and  _525
REMARK  229  A    between atoms: _525  and  _526
REMARK  230  A    between atoms: _526  and  _527
REMARK  231  A    between atoms: _536  and  _538
REMARK  232  A    between atoms: _538  and  _539
REMARK  233  A    between atoms: _538  and  _541
REMARK  234  A    between atoms: _541  and  _542
REMARK  235  A    between atoms: _545  and  _547
REMARK  236  A    between atoms: _547  and  _548
REMARK  237  A    between atoms: _551  and  _553
REMARK  238  A    between atoms: _553  and  _554
REMARK  239  A    between atoms: _553  and  _556
REMARK  240  A    between atoms: _556  and  _557
REMARK  241  A    between atoms: _557  and  _558
REMARK                            x       y       z     vdW  Elec       q    Type
REMARK                         _______ _______ _______ _____ _____    ______ ____
ROOT
ATOM      1  CA  LEU A   5     -20.103   8.370  43.364  0.00  0.00    +0.149 C 
ENDROOT
BRANCH   1   4
ATOM      2  C   SER A   4     -22.209   7.433  44.172  0.00  0.00    +0.243 C 
ATOM      3  O   SER A   4     -22.235   8.221  45.117  0.00  0.00    -0.273 OA
ATOM      4  N   LEU A   5     -21.225   7.424  43.274  0.00  0.00    -0.297 N 
ATOM      5  H   LEU A   5     -21.251   6.735  42.495  0.00  0.00    +0.150 HD
BRANCH   2   6
ATOM      6  CA  SER A   4     -23.326   6.407  44.012  0.00  0.00    +0.178 C 
BRANCH   6   9
ATOM      7  C   LEU A   3     -24.678   7.319  42.184  0.00  0.00    +0.241 C 
ATOM      8  O   LEU A   3     -24.832   8.406  42.746  0.00  0.00    -0.273 OA
ATOM      9  N   SER A   4     -23.919   6.343  42.674  0.00  0.00    -0.295 N 
ATOM     10  H   SER A   4     -23.740   5.504  42.086  0.00  0.00    +0.150 HD
BRANCH   7  11
ATOM     11  CA  LEU A   3     -25.326   7.047  40.836  0.00  0.00    +0.149 C 
BRANCH  11  14
ATOM     12  C   GLU A   2     -23.235   7.189  39.565  0.00  0.00    +0.241 C 
ATOM     13  O   GLU A   2     -22.936   8.271  40.051  0.00  0.00    -0.273 OA
ATOM     14  N   LEU A   3     -24.343   6.526  39.884  0.00  0.00    -0.297 N 
ATOM     15  H   LEU A   3     -24.518   5.602  39.440  0.00  0.00    +0.150 HD
BRANCH  12  16
ATOM     16  CA  GLU A   2     -22.314   6.522  38.546  0.00  0.00    +0.149 C 
BRANCH  16  19
ATOM     17  C   GLY A   1     -21.495   4.689  39.935  0.00  0.00    +0.240 C 
ATOM     18  O   GLY A   1     -20.947   5.462  40.725  0.00  0.00    -0.274 OA
ATOM     19  N   GLU A   2     -22.165   5.103  38.860  0.00  0.00    -0.297 N 
ATOM     20  H   GLU A   2     -22.593   4.397  38.228  0.00  0.00    +0.150 HD
BRANCH  17  21
ATOM     21  CA  GLY A   1     -21.438   3.191  40.170  0.00  0.00    +0.169 C 
BRANCH  21  22
ATOM     22  N   GLY A   1     -22.611   2.496  39.680  0.00  0.00    -0.236 NA
ATOM     23  H   GLY A   1     -22.502   1.809  38.907  0.00  0.00    +0.142 HD
ENDBRANCH  21  22
ENDBRANCH  17  21
ENDBRANCH  16  19
BRANCH  16  24
ATOM     24  CB  GLU A   2     -22.876   6.727  37.141  0.00  0.00    +0.041 C 
BRANCH  24  25
ATOM     25  CG  GLU A   2     -21.948   6.301  36.006  0.00  0.00    +0.116 C 
BRANCH  25  26
ATOM     26  CD  GLU A   2     -20.694   7.134  35.924  0.00  0.00    +0.365 C 
ATOM     27  OE2 GLU A   2     -19.672   6.725  36.516  0.00  0.00    -0.246 OA
ATOM     28  OE1 GLU A   2     -20.735   8.191  35.276  0.00  0.00    -0.246 OA
ENDBRANCH  25  26
ENDBRANCH  24  25
ENDBRANCH  16  24
ENDBRANCH  12  16
ENDBRANCH  11  14
BRANCH  11  29
ATOM     29  CB  LEU A   3     -26.501   6.072  41.005  0.00  0.00    +0.029 C 
BRANCH  29  30
ATOM     30  CG  LEU A   3     -27.650   6.204  39.995  0.00  0.00    +0.002 C 
ATOM     31  CD2 LEU A   3     -28.468   7.467  40.221  0.00  0.00    +0.000 C 
ATOM     32  CD1 LEU A   3     -28.559   4.985  40.034  0.00  0.00    +0.000 C 
ENDBRANCH  29  30
ENDBRANCH  11  29
ENDBRANCH   7  11
ENDBRANCH   6   9
BRANCH   6  33
ATOM     33  CB  SER A   4     -22.802   5.036  44.426  0.00  0.00    +0.166 C 
BRANCH  33  34
ATOM     34  OG  SER A   4     -22.578   4.990  45.820  0.00  0.00    -0.380 OA
ATOM     35  H   SER A   4     -22.239   4.094  46.069  0.00  0.00    +0.211 HD
ENDBRANCH  33  34
ENDBRANCH   6  33
ENDBRANCH   2   6
ENDBRANCH   1   4
BRANCH   1  36
ATOM     36  C   LEU A   5     -20.537   9.809  43.101  0.00  0.00    +0.241 C 
ATOM     37  O   LEU A   5     -19.985  10.742  43.686  0.00  0.00    -0.273 OA
ATOM     38  N   MET A   6     -21.507   9.991  42.210  0.00  0.00    -0.297 N 
ATOM     39  H   MET A   6     -21.912   9.167  41.721  0.00  0.00    +0.150 HD
BRANCH  38  40
ATOM     40  CA  MET A   6     -22.015  11.327  41.904  0.00  0.00    +0.149 C 
BRANCH  40  41
ATOM     41  C   MET A   6     -22.816  11.882  43.079  0.00  0.00    +0.241 C 
ATOM     42  N   ALA A   7     -23.454  11.004  43.846  0.00  0.00    -0.297 N 
ATOM     43  H   ALA A   7     -23.454  10.000  43.576  0.00  0.00    +0.150 HD
ATOM     44  O   MET A   6     -22.856  13.088  43.277  0.00  0.00    -0.273 OA
BRANCH  42  45
ATOM     45  CA  ALA A   7     -24.156  11.417  45.061  0.00  0.00    +0.149 C 
ATOM     46  CB  ALA A   7     -25.033  10.298  45.581  0.00  0.00    +0.031 C 
BRANCH  45  47
ATOM     47  C   ALA A   7     -23.154  11.855  46.123  0.00  0.00    +0.241 C 
ATOM     48  O   ALA A   7     -23.347  12.879  46.768  0.00  0.00    -0.273 OA
ATOM     49  N   ALA A   8     -22.073  11.095  46.276  0.00  0.00    -0.297 N 
ATOM     50  H   ALA A   8     -21.987  10.224  45.714  0.00  0.00    +0.150 HD
BRANCH  49  51
ATOM     51  CA  ALA A   8     -21.003  11.444  47.208  0.00  0.00    +0.149 C 
ATOM     52  CB  ALA A   8     -19.931  10.368  47.217  0.00  0.00    +0.031 C 
BRANCH  51  53
ATOM     53  C   ALA A   8     -20.383  12.803  46.903  0.00  0.00    +0.241 C 
ATOM     54  O   ALA A   8     -20.193  13.611  47.808  0.00  0.00    -0.273 OA
ATOM     55  N   LEU A   9     -20.082  13.062  45.633  0.00  0.00    -0.298 N 
ATOM     56  H   LEU A   9     -20.263  12.334  44.913  0.00  0.00    +0.150 HD
BRANCH  55  57
ATOM     57  CA  LEU A   9     -19.501  14.348  45.219  0.00  0.00    +0.137 C 
BRANCH  57  58
ATOM     58  C   LEU A   9     -20.474  15.522  45.395  0.00  0.00    +0.227 C 
ATOM     59  O   LEU A   9     -20.058  16.640  45.710  0.00  0.00    -0.286 OA
ENDBRANCH  57  58
BRANCH  57  60
ATOM     60  CB  LEU A   9     -19.037  14.290  43.754  0.00  0.00    +0.028 C 
BRANCH  60  61
ATOM     61  CG  LEU A   9     -17.872  13.341  43.453  0.00  0.00    +0.002 C 
ATOM     62  CD2 LEU A   9     -16.572  13.859  44.047  0.00  0.00    +0.000 C 
ATOM     63  CD1 LEU A   9     -17.720  13.137  41.953  0.00  0.00    +0.000 C 
ENDBRANCH  60  61
ENDBRANCH  57  60
ENDBRANCH  55  57
ENDBRANCH  51  53
ENDBRANCH  49  51
ENDBRANCH  45  47
ENDBRANCH  42  45
ENDBRANCH  40  41
BRANCH  40  64
ATOM     64  CB  MET A   6     -22.886  11.315  40.647  0.00  0.00    +0.041 C 
BRANCH  64  65
ATOM     65  CG  MET A   6     -22.122  11.006  39.352  0.00  0.00    +0.060 C 
BRANCH  65  66
ATOM     66  SD  MET A   6     -21.003  12.293  38.864  0.00  0.00    -0.139 S 
ATOM     67  CE  MET A   6     -22.135  13.542  38.391  0.00  0.00    +0.069 C 
ENDBRANCH  65  66
ENDBRANCH  64  65
ENDBRANCH  40  64
ENDBRANCH  38  40
ENDBRANCH   1  36
BRANCH   1  68
ATOM     68  CB  LEU A   5     -18.973   7.995  42.400  0.00  0.00    +0.029 C 
BRANCH  68  69
ATOM     69  CG  LEU A   5     -17.814   8.987  42.261  0.00  0.00    +0.002 C 
ATOM     70  CD2 LEU A   5     -17.073   9.135  43.568  0.00  0.00    +0.000 C 
ATOM     71  CD1 LEU A   5     -16.851   8.551  41.162  0.00  0.00    +0.000 C 
ENDBRANCH  68  69
ENDBRANCH   1  68
TORSDOF 32
REMARK  Name = ../refined-set-2016/3ccw/3ccw_pocket.pdb
REMARK  241 active torsions:
REMARK  status: ('A' for Active; 'I' for Inactive)
REMARK    1  A    between atoms: _1  and  _3
REMARK    2  A    between atoms: _3  and  _4
REMARK    3  A    between atoms: _3  and  _6
REMARK    4  A    between atoms: _6  and  _7
REMARK    5  A    between atoms: _10  and  _12
REMARK    6  A    between atoms: _12  and  _13
REMARK    7  A    between atoms: _12  and  _15
REMARK    8  A    between atoms: _15  and  _16
REMARK    9  A    between atoms: _16  and  _17
REMARK   10  A    between atoms: _20  and  _22
REMARK   11  A    between atoms: _22  and  _23
REMARK   12  A    between atoms: _25  and  _27
REMARK   13  A    between atoms: _27  and  _28
REMARK   14  A    between atoms: _27  and  _30
REMARK   15  A    between atoms: _32  and  _34
REMARK   16  A    between atoms: _34  and  _35
REMARK   17  A    between atoms: _34  and  _37
REMARK   18  A    between atoms: _37  and  _38
REMARK   19  A    between atoms: _41  and  _43
REMARK   20  A    between atoms: _43  and  _44
REMARK   21  A    between atoms: _43  and  _46
REMARK   22  A    between atoms: _49  and  _51
REMARK   23  A    between atoms: _51  and  _52
REMARK   24  A    between atoms: _55  and  _57
REMARK   25  A    between atoms: _57  and  _58
REMARK   26  A    between atoms: _57  and  _60
REMARK   27  A    between atoms: _60  and  _61
REMARK   28  A    between atoms: _63  and  _65
REMARK   29  A    between atoms: _65  and  _66
REMARK   30  A    between atoms: _65  and  _68
REMARK   31  A    between atoms: _68  and  _69
REMARK   32  A    between atoms: _72  and  _74
REMARK   33  A    between atoms: _74  and  _75
REMARK   34  A    between atoms: _74  and  _77
REMARK   35  A    between atoms: _77  and  _78
REMARK   36  A    between atoms: _83  and  _85
REMARK   37  A    between atoms: _85  and  _86
REMARK   38  A    between atoms: _85  and  _88
REMARK   39  A    between atoms: _88  and  _89
REMARK   40  A    between atoms: _89  and  _90
REMARK   41  A    between atoms: _90  and  _91
REMARK   42  A    between atoms: _100  and  _102
REMARK   43  A    between atoms: _102  and  _103
REMARK   44  A    between atoms: _105  and  _107
REMARK   45  A    between atoms: _107  and  _108
REMARK   46  A    between atoms: _107  and  _110
REMARK   47  A    between atoms: _113  and  _115
REMARK   48  A    between atoms: _115  and  _116
REMARK   49  A    between atoms: _115  and  _118
REMARK   50  A    between atoms: _118  and  _119
REMARK   51  A    between atoms: _122  and  _124
REMARK   52  A    between atoms: _124  and  _125
REMARK   53  A    between atoms: _124  and  _127
REMARK   54  A    between atoms: _127  and  _128
REMARK   55  A    between atoms: _128  and  _129
REMARK   56  A    between atoms: _129  and  _130
REMARK   57  A    between atoms: _130  and  _131
REMARK   58  A    between atoms: _135  and  _137
REMARK   59  A    between atoms: _137  and  _138
REMARK   60  A    between atoms: _137  and  _140
REMARK   61  A    between atoms: _140  and  _141
REMARK   62  A    between atoms: _146  and  _148
REMARK   63  A    between atoms: _148  and  _149
REMARK   64  A    between atoms: _148  and  _151
REMARK   65  A    between atoms: _151  and  _152
REMARK   66  A    between atoms: _157  and  _159
REMARK   67  A    between atoms: _159  and  _160
REMARK   68  A    between atoms: _163  and  _165
REMARK   69  A    between atoms: _165  and  _166
REMARK   70  A    between atoms: _165  and  _168
REMARK   71  A    between atoms: _168  and  _169
REMARK   72  A    between atoms: _174  and  _176
REMARK   73  A    between atoms: _176  and  _177
REMARK   74  A    between atoms: _180  and  _182
REMARK   75  A    between atoms: _182  and  _183
REMARK   76  A    between atoms: _186  and  _188
REMARK   77  A    between atoms: _188  and  _189
REMARK   78  A    between atoms: _188  and  _191
REMARK   79  A    between atoms: _191  and  _192
REMARK   80  A    between atoms: _197  and  _199
REMARK   81  A    between atoms: _199  and  _200
REMARK   82  A    between atoms: _199  and  _202
REMARK   83  A    between atoms: _202  and  _203
REMARK   84  A    between atoms: _206  and  _208
REMARK   85  A    between atoms: _208  and  _209
REMARK   86  A    between atoms: _211  and  _213
REMARK   87  A    between atoms: _213  and  _214
REMARK   88  A    between atoms: _213  and  _216
REMARK   89  A    between atoms: _216  and  _217
REMARK   90  A    between atoms: _217  and  _218
REMARK   91  A    between atoms: _221  and  _223
REMARK   92  A    between atoms: _223  and  _224
REMARK   93  A    between atoms: _223  and  _226
REMARK   94  A    between atoms: _226  and  _227
REMARK   95  A    between atoms: _230  and  _232
REMARK   96  A    between atoms: _232  and  _233
REMARK   97  A    between atoms: _232  and  _235
REMARK   98  A    between atoms: _235  and  _236
REMARK   99  A    between atoms: _238  and  _240
REMARK  100  A    between atoms: _240  and  _241
REMARK  101  A    between atoms: _240  and  _243
REMARK  102  A    between atoms: _243  and  _244
REMARK  103  A    between atoms: _247  and  _249
REMARK  104  A    between atoms: _249  and  _250
REMARK  105  A    between atoms: _249  and  _252
REMARK  106  A    between atoms: _252  and  _253
REMARK  107  A    between atoms: _253  and  _254
REMARK  108  A    between atoms: _256  and  _258
REMARK  109  A    between atoms: _258  and  _259
REMARK  110  A    between atoms: _262  and  _264
REMARK  111  A    between atoms: _264  and  _265
REMARK  112  A    between atoms: _268  and  _270
REMARK  113  A    between atoms: _270  and  _271
REMARK  114  A    between atoms: _270  and  _273
REMARK  115  A    between atoms: _273  and  _274
REMARK  116  A    between atoms: _277  and  _279
REMARK  117  A    between atoms: _279  and  _280
REMARK  118  A    between atoms: _279  and  _282
REMARK  119  A    between atoms: _282  and  _283
REMARK  120  A    between atoms: _288  and  _290
REMARK  121  A    between atoms: _290  and  _291
REMARK  122  A    between atoms: _290  and  _293
REMARK  123  A    between atoms: _293  and  _294
REMARK  124  A    between atoms: _294  and  _295
REMARK  125  A    between atoms: _298  and  _300
REMARK  126  A    between atoms: _300  and  _301
REMARK  127  A    between atoms: _300  and  _303
REMARK  128  A    between atoms: _303  and  _304
REMARK  129  A    between atoms: _307  and  _309
REMARK  130  A    between atoms: _309  and  _310
REMARK  131  A    between atoms: _309  and  _312
REMARK  132  A    between atoms: _312  and  _313
REMARK  133  A    between atoms: _313  and  _314
REMARK  134  A    between atoms: _314  and  _315
REMARK  135  A    between atoms: _324  and  _326
REMARK  136  A    between atoms: _326  and  _327
REMARK  137  A    between atoms: _329  and  _331
REMARK  138  A    between atoms: _331  and  _332
REMARK  139  A    between atoms: _331  and  _334
REMARK  140  A    between atoms: _334  and  _335
REMARK  141  A    between atoms: _335  and  _336
REMARK  142  A    between atoms: _338  and  _340
REMARK  143  A    between atoms: _340  and  _341
REMARK  144  A    between atoms: _340  and  _343
REMARK  145  A    between atoms: _343  and  _344
REMARK  146  A    between atoms: _344  and  _345
REMARK  147  A    between atoms: _347  and  _349
REMARK  148  A    between atoms: _349  and  _350
REMARK  149  A    between atoms: _349  and  _352
REMARK  150  A    between atoms: _352  and  _353
REMARK  151  A    between atoms: _358  and  _360
REMARK  152  A    between atoms: _360  and  _361
REMARK  153  A    between atoms: _360  and  _363
REMARK  154  A    between atoms: _363  and  _364
REMARK  155  A    between atoms: _364  and  _365
REMARK  156  A    between atoms: _367  and  _369
REMARK  157  A    between atoms: _369  and  _370
REMARK  158  A    between atoms: _369  and  _372
REMARK  159  A    between atoms: _372  and  _373
REMARK  160  A    between atoms: _376  and  _378
REMARK  161  A    between atoms: _378  and  _379
REMARK  162  A    between atoms: _378  and  _381
REMARK  163  A    between atoms: _381  and  _382
REMARK  164  A    between atoms: _384  and  _386
REMARK  165  A    between atoms: _386  and  _387
REMARK  166  A    between atoms: _386  and  _389
REMARK  167  A    between atoms: _389  and  _390
REMARK  168  A    between atoms: _390  and  _391
REMARK  169  A    between atoms: _391  and  _392
REMARK  170  A    between atoms: _392  and  _393
REMARK  171  A    between atoms: _397  and  _399
REMARK  172  A    between atoms: _399  and  _400
REMARK  173  A    between atoms: _399  and  _402
REMARK  174  A    between atoms: _402  and  _403
REMARK  175  A    between atoms: _406  and  _408
REMARK  176  A    between atoms: _408  and  _409
REMARK  177  A    between atoms: _408  and  _411
REMARK  178  A    between atoms: _411  and  _412
REMARK  179  A    between atoms: _412  and  _413
REMARK  180  A    between atoms: _416  and  _418
REMARK  181  A    between atoms: _418  and  _419
REMARK  182  A    between atoms: _422  and  _424
REMARK  183  A    between atoms: _424  and  _425
REMARK  184  A    between atoms: _424  and  _427
REMARK  185  A    between atoms: _430  and  _432
REMARK  186  A    between atoms: _432  and  _433
REMARK  187  A    between atoms: _432  and  _435
REMARK  188  A    between atoms: _435  and  _436
REMARK  189  A    between atoms: _438  and  _440
REMARK  190  A    between atoms: _440  and  _441
REMARK  191  A    between atoms: _443  and  _445
REMARK  192  A    between atoms: _445  and  _446
REMARK  193  A    between atoms: _445  and  _448
REMARK  194  A    between atoms: _448  and  _449
REMARK  195  A    between atoms: _454  and  _456
REMARK  196  A    between atoms: _456  and  _457
REMARK  197  A    between atoms: _456  and  _459
REMARK  198  A    between atoms: _459  and  _460
REMARK  199  A    between atoms: _465  and  _466
REMARK  200  A    between atoms: _468  and  _470
REMARK  201  A    between atoms: _470  and  _471
REMARK  202  A    between atoms: _470  and  _473
REMARK  203  A    between atoms: _475  and  _477
REMARK  204  A    between atoms: _477  and  _478
REMARK  205  A    between atoms: _477  and  _480
REMARK  206  A    between atoms: _480  and  _481
REMARK  207  A    between atoms: _484  and  _486
REMARK  208  A    between atoms: _486  and  _487
REMARK  209  A    between atoms: _486  and  _489
REMARK  210  A    between atoms: _489  and  _490
REMARK  211  A    between atoms: _493  and  _495
REMARK  212  A    between atoms: _495  and  _496
REMARK  213  A    between atoms: _495  and  _498
REMARK  214  A    between atoms: _498  and  _499
REMARK  215  A    between atoms: _499  and  _500
REMARK  216  A    between atoms: _500  and  _501
REMARK  217  A    between atoms: _501  and  _502
REMARK  218  A    between atoms: _506  and  _508
REMARK  219  A    between atoms: _508  and  _509
REMARK  220  A    between atoms: _508  and  _511
REMARK  221  A    between atoms: _511  and  _512
REMARK  222  A    between atoms: _512  and  _513
REMARK  223  A    between atoms: _513  and  _514
REMARK  224  A    between atoms: _514  and  _515
REMARK  225  A    between atoms: _519  and  _521
REMARK  226  A    between atoms: _521  and  _522
REMARK  227  A    between atoms: _521  and  _524
REMARK  228  A    between atoms: _524  and  _525
REMARK  229  A    between atoms: _525  and  _526
REMARK  230  A    between atoms: _526  and  _527
REMARK  231  A    between atoms: _536  and  _538
REMARK  232  A    between atoms: _538  and  _539
REMARK  233  A    between atoms: _538  and  _541
REMARK  234  A    between atoms: _541  and  _542
REMARK  235  A    between atoms: _545  and  _547
REMARK  236  A    between atoms: _547  and  _548
REMARK  237  A    between atoms: _551  and  _553
REMARK  238  A    between atoms: _553  and  _554
REMARK  239  A    between atoms: _553  and  _556
REMARK  240  A    between atoms: _556  and  _557
REMARK  241  A    between atoms: _557  and  _558
REMARK                            x       y       z     vdW  Elec       q    Type
REMARK                         _______ _______ _______ _____ _____    ______ ____
ROOT
ATOM      1  CB  HIS A   1     -17.178  14.626  52.336  0.00  0.00    +0.072 C 
ENDROOT
BRANCH   1   2
ATOM      2  CG  HIS A   1     -15.688  14.472  52.466  0.00  0.00    +0.082 A 
ATOM      3  ND1 HIS A   1     -15.008  14.821  53.616  0.00  0.00    -0.227 NA
ATOM      4  CE1 HIS A   1     -13.718  14.588  53.452  0.00  0.00    +0.199 A 
ATOM      5  NE2 HIS A   1     -13.533  14.101  52.237  0.00  0.00    -0.221 NA
ATOM      6  CD2 HIS A   1     -14.748  14.020  51.599  0.00  0.00    +0.115 A 
ENDBRANCH   1   2
BRANCH   1   7
ATOM      7  CA  HIS A   1     -17.756  14.151  50.979  0.00  0.00    +0.139 C 
BRANCH   7   8
ATOM      8  N   HIS A   1     -18.314  15.248  50.166  0.00  0.00    -0.239 NA
ATOM      9  H   HIS A   1     -18.196  15.183  49.135  0.00  0.00    +0.142 HD
ENDBRANCH   7   8
BRANCH   7  10
ATOM     10  C   HIS A   1     -18.798  13.042  51.179  0.00  0.00    +0.224 C 
ATOM     11  O   HIS A   1     -19.972  13.180  50.820  0.00  0.00    -0.287 OA
ENDBRANCH   7  10
ENDBRANCH   1   7
TORSDOF 4
REMARK  Name = ../refined-set-2016/3ccw/3ccw_pocket.pdb
REMARK  241 active torsions:
REMARK  status: ('A' for Active; 'I' for Inactive)
REMARK    1  A    between atoms: _1  and  _3
REMARK    2  A    between atoms: _3  and  _4
REMARK    3  A    between atoms: _3  and  _6
REMARK    4  A    between atoms: _6  and  _7
REMARK    5  A    between atoms: _10  and  _12
REMARK    6  A    between atoms: _12  and  _13
REMARK    7  A    between atoms: _12  and  _15
REMARK    8  A    between atoms: _15  and  _16
REMARK    9  A    between atoms: _16  and  _17
REMARK   10  A    between atoms: _20  and  _22
REMARK   11  A    between atoms: _22  and  _23
REMARK   12  A    between atoms: _25  and  _27
REMARK   13  A    between atoms: _27  and  _28
REMARK   14  A    between atoms: _27  and  _30
REMARK   15  A    between atoms: _32  and  _34
REMARK   16  A    between atoms: _34  and  _35
REMARK   17  A    between atoms: _34  and  _37
REMARK   18  A    between atoms: _37  and  _38
REMARK   19  A    between atoms: _41  and  _43
REMARK   20  A    between atoms: _43  and  _44
REMARK   21  A    between atoms: _43  and  _46
REMARK   22  A    between atoms: _49  and  _51
REMARK   23  A    between atoms: _51  and  _52
REMARK   24  A    between atoms: _55  and  _57
REMARK   25  A    between atoms: _57  and  _58
REMARK   26  A    between atoms: _57  and  _60
REMARK   27  A    between atoms: _60  and  _61
REMARK   28  A    between atoms: _63  and  _65
REMARK   29  A    between atoms: _65  and  _66
REMARK   30  A    between atoms: _65  and  _68
REMARK   31  A    between atoms: _68  and  _69
REMARK   32  A    between atoms: _72  and  _74
REMARK   33  A    between atoms: _74  and  _75
REMARK   34  A    between atoms: _74  and  _77
REMARK   35  A    between atoms: _77  and  _78
REMARK   36  A    between atoms: _83  and  _85
REMARK   37  A    between atoms: _85  and  _86
REMARK   38  A    between atoms: _85  and  _88
REMARK   39  A    between atoms: _88  and  _89
REMARK   40  A    between atoms: _89  and  _90
REMARK   41  A    between atoms: _90  and  _91
REMARK   42  A    between atoms: _100  and  _102
REMARK   43  A    between atoms: _102  and  _103
REMARK   44  A    between atoms: _105  and  _107
REMARK   45  A    between atoms: _107  and  _108
REMARK   46  A    between atoms: _107  and  _110
REMARK   47  A    between atoms: _113  and  _115
REMARK   48  A    between atoms: _115  and  _116
REMARK   49  A    between atoms: _115  and  _118
REMARK   50  A    between atoms: _118  and  _119
REMARK   51  A    between atoms: _122  and  _124
REMARK   52  A    between atoms: _124  and  _125
REMARK   53  A    between atoms: _124  and  _127
REMARK   54  A    between atoms: _127  and  _128
REMARK   55  A    between atoms: _128  and  _129
REMARK   56  A    between atoms: _129  and  _130
REMARK   57  A    between atoms: _130  and  _131
REMARK   58  A    between atoms: _135  and  _137
REMARK   59  A    between atoms: _137  and  _138
REMARK   60  A    between atoms: _137  and  _140
REMARK   61  A    between atoms: _140  and  _141
REMARK   62  A    between atoms: _146  and  _148
REMARK   63  A    between atoms: _148  and  _149
REMARK   64  A    between atoms: _148  and  _151
REMARK   65  A    between atoms: _151  and  _152
REMARK   66  A    between atoms: _157  and  _159
REMARK   67  A    between atoms: _159  and  _160
REMARK   68  A    between atoms: _163  and  _165
REMARK   69  A    between atoms: _165  and  _166
REMARK   70  A    between atoms: _165  and  _168
REMARK   71  A    between atoms: _168  and  _169
REMARK   72  A    between atoms: _174  and  _176
REMARK   73  A    between atoms: _176  and  _177
REMARK   74  A    between atoms: _180  and  _182
REMARK   75  A    between atoms: _182  and  _183
REMARK   76  A    between atoms: _186  and  _188
REMARK   77  A    between atoms: _188  and  _189
REMARK   78  A    between atoms: _188  and  _191
REMARK   79  A    between atoms: _191  and  _192
REMARK   80  A    between atoms: _197  and  _199
REMARK   81  A    between atoms: _199  and  _200
REMARK   82  A    between atoms: _199  and  _202
REMARK   83  A    between atoms: _202  and  _203
REMARK   84  A    between atoms: _206  and  _208
REMARK   85  A    between atoms: _208  and  _209
REMARK   86  A    between atoms: _211  and  _213
REMARK   87  A    between atoms: _213  and  _214
REMARK   88  A    between atoms: _213  and  _216
REMARK   89  A    between atoms: _216  and  _217
REMARK   90  A    between atoms: _217  and  _218
REMARK   91  A    between atoms: _221  and  _223
REMARK   92  A    between atoms: _223  and  _224
REMARK   93  A    between atoms: _223  and  _226
REMARK   94  A    between atoms: _226  and  _227
REMARK   95  A    between atoms: _230  and  _232
REMARK   96  A    between atoms: _232  and  _233
REMARK   97  A    between atoms: _232  and  _235
REMARK   98  A    between atoms: _235  and  _236
REMARK   99  A    between atoms: _238  and  _240
REMARK  100  A    between atoms: _240  and  _241
REMARK  101  A    between atoms: _240  and  _243
REMARK  102  A    between atoms: _243  and  _244
REMARK  103  A    between atoms: _247  and  _249
REMARK  104  A    between atoms: _249  and  _250
REMARK  105  A    between atoms: _249  and  _252
REMARK  106  A    between atoms: _252  and  _253
REMARK  107  A    between atoms: _253  and  _254
REMARK  108  A    between atoms: _256  and  _258
REMARK  109  A    between atoms: _258  and  _259
REMARK  110  A    between atoms: _262  and  _264
REMARK  111  A    between atoms: _264  and  _265
REMARK  112  A    between atoms: _268  and  _270
REMARK  113  A    between atoms: _270  and  _271
REMARK  114  A    between atoms: _270  and  _273
REMARK  115  A    between atoms: _273  and  _274
REMARK  116  A    between atoms: _277  and  _279
REMARK  117  A    between atoms: _279  and  _280
REMARK  118  A    between atoms: _279  and  _282
REMARK  119  A    between atoms: _282  and  _283
REMARK  120  A    between atoms: _288  and  _290
REMARK  121  A    between atoms: _290  and  _291
REMARK  122  A    between atoms: _290  and  _293
REMARK  123  A    between atoms: _293  and  _294
REMARK  124  A    between atoms: _294  and  _295
REMARK  125  A    between atoms: _298  and  _300
REMARK  126  A    between atoms: _300  and  _301
REMARK  127  A    between atoms: _300  and  _303
REMARK  128  A    between atoms: _303  and  _304
REMARK  129  A    between atoms: _307  and  _309
REMARK  130  A    between atoms: _309  and  _310
REMARK  131  A    between atoms: _309  and  _312
REMARK  132  A    between atoms: _312  and  _313
REMARK  133  A    between atoms: _313  and  _314
REMARK  134  A    between atoms: _314  and  _315
REMARK  135  A    between atoms: _324  and  _326
REMARK  136  A    between atoms: _326  and  _327
REMARK  137  A    between atoms: _329  and  _331
REMARK  138  A    between atoms: _331  and  _332
REMARK  139  A    between atoms: _331  and  _334
REMARK  140  A    between atoms: _334  and  _335
REMARK  141  A    between atoms: _335  and  _336
REMARK  142  A    between atoms: _338  and  _340
REMARK  143  A    between atoms: _340  and  _341
REMARK  144  A    between atoms: _340  and  _343
REMARK  145  A    between atoms: _343  and  _344
REMARK  146  A    between atoms: _344  and  _345
REMARK  147  A    between atoms: _347  and  _349
REMARK  148  A    between atoms: _349  and  _350
REMARK  149  A    between atoms: _349  and  _352
REMARK  150  A    between atoms: _352  and  _353
REMARK  151  A    between atoms: _358  and  _360
REMARK  152  A    between atoms: _360  and  _361
REMARK  153  A    between atoms: _360  and  _363
REMARK  154  A    between atoms: _363  and  _364
REMARK  155  A    between atoms: _364  and  _365
REMARK  156  A    between atoms: _367  and  _369
REMARK  157  A    between atoms: _369  and  _370
REMARK  158  A    between atoms: _369  and  _372
REMARK  159  A    between atoms: _372  and  _373
REMARK  160  A    between atoms: _376  and  _378
REMARK  161  A    between atoms: _378  and  _379
REMARK  162  A    between atoms: _378  and  _381
REMARK  163  A    between atoms: _381  and  _382
REMARK  164  A    between atoms: _384  and  _386
REMARK  165  A    between atoms: _386  and  _387
REMARK  166  A    between atoms: _386  and  _389
REMARK  167  A    between atoms: _389  and  _390
REMARK  168  A    between atoms: _390  and  _391
REMARK  169  A    between atoms: _391  and  _392
REMARK  170  A    between atoms: _392  and  _393
REMARK  171  A    between atoms: _397  and  _399
REMARK  172  A    between atoms: _399  and  _400
REMARK  173  A    between atoms: _399  and  _402
REMARK  174  A    between atoms: _402  and  _403
REMARK  175  A    between atoms: _406  and  _408
REMARK  176  A    between atoms: _408  and  _409
REMARK  177  A    between atoms: _408  and  _411
REMARK  178  A    between atoms: _411  and  _412
REMARK  179  A    between atoms: _412  and  _413
REMARK  180  A    between atoms: _416  and  _418
REMARK  181  A    between atoms: _418  and  _419
REMARK  182  A    between atoms: _422  and  _424
REMARK  183  A    between atoms: _424  and  _425
REMARK  184  A    between atoms: _424  and  _427
REMARK  185  A    between atoms: _430  and  _432
REMARK  186  A    between atoms: _432  and  _433
REMARK  187  A    between atoms: _432  and  _435
REMARK  188  A    between atoms: _435  and  _436
REMARK  189  A    between atoms: _438  and  _440
REMARK  190  A    between atoms: _440  and  _441
REMARK  191  A    between atoms: _443  and  _445
REMARK  192  A    between atoms: _445  and  _446
REMARK  193  A    between atoms: _445  and  _448
REMARK  194  A    between atoms: _448  and  _449
REMARK  195  A    between atoms: _454  and  _456
REMARK  196  A    between atoms: _456  and  _457
REMARK  197  A    between atoms: _456  and  _459
REMARK  198  A    between atoms: _459  and  _460
REMARK  199  A    between atoms: _465  and  _466
REMARK  200  A    between atoms: _468  and  _470
REMARK  201  A    between atoms: _470  and  _471
REMARK  202  A    between atoms: _470  and  _473
REMARK  203  A    between atoms: _475  and  _477
REMARK  204  A    between atoms: _477  and  _478
REMARK  205  A    between atoms: _477  and  _480
REMARK  206  A    between atoms: _480  and  _481
REMARK  207  A    between atoms: _484  and  _486
REMARK  208  A    between atoms: _486  and  _487
REMARK  209  A    between atoms: _486  and  _489
REMARK  210  A    between atoms: _489  and  _490
REMARK  211  A    between atoms: _493  and  _495
REMARK  212  A    between atoms: _495  and  _496
REMARK  213  A    between atoms: _495  and  _498
REMARK  214  A    between atoms: _498  and  _499
REMARK  215  A    between atoms: _499  and  _500
REMARK  216  A    between atoms: _500  and  _501
REMARK  217  A    between atoms: _501  and  _502
REMARK  218  A    between atoms: _506  and  _508
REMARK  219  A    between atoms: _508  and  _509
REMARK  220  A    between atoms: _508  and  _511
REMARK  221  A    between atoms: _511  and  _512
REMARK  222  A    between atoms: _512  and  _513
REMARK  223  A    between atoms: _513  and  _514
REMARK  224  A    between atoms: _514  and  _515
REMARK  225  A    between atoms: _519  and  _521
REMARK  226  A    between atoms: _521  and  _522
REMARK  227  A    between atoms: _521  and  _524
REMARK  228  A    between atoms: _524  and  _525
REMARK  229  A    between atoms: _525  and  _526
REMARK  230  A    between atoms: _526  and  _527
REMARK  231  A    between atoms: _536  and  _538
REMARK  232  A    between atoms: _538  and  _539
REMARK  233  A    between atoms: _538  and  _541
REMARK  234  A    between atoms: _541  and  _542
REMARK  235  A    between atoms: _545  and  _547
REMARK  236  A    between atoms: _547  and  _548
REMARK  237  A    between atoms: _551  and  _553
REMARK  238  A    between atoms: _553  and  _554
REMARK  239  A    between atoms: _553  and  _556
REMARK  240  A    between atoms: _556  and  _557
REMARK  241  A    between atoms: _557  and  _558
REMARK                            x       y       z     vdW  Elec       q    Type
REMARK                         _______ _______ _______ _____ _____    ______ ____
ROOT
ATOM      1  CA  GLU A   1     -16.026  -5.156  50.498  0.00  0.00    +0.134 C 
ENDROOT
BRANCH   1   2
ATOM      2  N   GLU A   1     -14.827  -4.862  49.699  0.00  0.00    -0.239 NA
ATOM      3  H   GLU A   1     -14.947  -4.677  48.683  0.00  0.00    +0.142 HD
ENDBRANCH   1   2
BRANCH   1   4
ATOM      4  C   GLU A   1     -16.871  -6.283  49.901  0.00  0.00    +0.224 C 
ATOM      5  O   GLU A   1     -16.756  -6.602  48.709  0.00  0.00    -0.287 OA
ENDBRANCH   1   4
BRANCH   1   6
ATOM      6  CB  GLU A   1     -16.900  -3.911  50.641  0.00  0.00    +0.037 C 
BRANCH   6   7
ATOM      7  CG  GLU A   1     -16.157  -2.678  51.135  0.00  0.00    +0.116 C 
BRANCH   7   8
ATOM      8  CD  GLU A   1     -15.389  -1.965  50.034  0.00  0.00    +0.365 C 
ATOM      9  OE2 GLU A   1     -14.191  -1.667  50.249  0.00  0.00    -0.246 OA
ATOM     10  OE1 GLU A   1     -15.974  -1.701  48.961  0.00  0.00    -0.246 OA
ENDBRANCH   7   8
ENDBRANCH   6   7
ENDBRANCH   1   6
TORSDOF 5
REMARK  Name = ../refined-set-2016/3ccw/3ccw_pocket.pdb
REMARK  241 active torsions:
REMARK  status: ('A' for Active; 'I' for Inactive)
REMARK    1  A    between atoms: _1  and  _3
REMARK    2  A    between atoms: _3  and  _4
REMARK    3  A    between atoms: _3  and  _6
REMARK    4  A    between atoms: _6  and  _7
REMARK    5  A    between atoms: _10  and  _12
REMARK    6  A    between atoms: _12  and  _13
REMARK    7  A    between atoms: _12  and  _15
REMARK    8  A    between atoms: _15  and  _16
REMARK    9  A    between atoms: _16  and  _17
REMARK   10  A    between atoms: _20  and  _22
REMARK   11  A    between atoms: _22  and  _23
REMARK   12  A    between atoms: _25  and  _27
REMARK   13  A    between atoms: _27  and  _28
REMARK   14  A    between atoms: _27  and  _30
REMARK   15  A    between atoms: _32  and  _34
REMARK   16  A    between atoms: _34  and  _35
REMARK   17  A    between atoms: _34  and  _37
REMARK   18  A    between atoms: _37  and  _38
REMARK   19  A    between atoms: _41  and  _43
REMARK   20  A    between atoms: _43  and  _44
REMARK   21  A    between atoms: _43  and  _46
REMARK   22  A    between atoms: _49  and  _51
REMARK   23  A    between atoms: _51  and  _52
REMARK   24  A    between atoms: _55  and  _57
REMARK   25  A    between atoms: _57  and  _58
REMARK   26  A    between atoms: _57  and  _60
REMARK   27  A    between atoms: _60  and  _61
REMARK   28  A    between atoms: _63  and  _65
REMARK   29  A    between atoms: _65  and  _66
REMARK   30  A    between atoms: _65  and  _68
REMARK   31  A    between atoms: _68  and  _69
REMARK   32  A    between atoms: _72  and  _74
REMARK   33  A    between atoms: _74  and  _75
REMARK   34  A    between atoms: _74  and  _77
REMARK   35  A    between atoms: _77  and  _78
REMARK   36  A    between atoms: _83  and  _85
REMARK   37  A    between atoms: _85  and  _86
REMARK   38  A    between atoms: _85  and  _88
REMARK   39  A    between atoms: _88  and  _89
REMARK   40  A    between atoms: _89  and  _90
REMARK   41  A    between atoms: _90  and  _91
REMARK   42  A    between atoms: _100  and  _102
REMARK   43  A    between atoms: _102  and  _103
REMARK   44  A    between atoms: _105  and  _107
REMARK   45  A    between atoms: _107  and  _108
REMARK   46  A    between atoms: _107  and  _110
REMARK   47  A    between atoms: _113  and  _115
REMARK   48  A    between atoms: _115  and  _116
REMARK   49  A    between atoms: _115  and  _118
REMARK   50  A    between atoms: _118  and  _119
REMARK   51  A    between atoms: _122  and  _124
REMARK   52  A    between atoms: _124  and  _125
REMARK   53  A    between atoms: _124  and  _127
REMARK   54  A    between atoms: _127  and  _128
REMARK   55  A    between atoms: _128  and  _129
REMARK   56  A    between atoms: _129  and  _130
REMARK   57  A    between atoms: _130  and  _131
REMARK   58  A    between atoms: _135  and  _137
REMARK   59  A    between atoms: _137  and  _138
REMARK   60  A    between atoms: _137  and  _140
REMARK   61  A    between atoms: _140  and  _141
REMARK   62  A    between atoms: _146  and  _148
REMARK   63  A    between atoms: _148  and  _149
REMARK   64  A    between atoms: _148  and  _151
REMARK   65  A    between atoms: _151  and  _152
REMARK   66  A    between atoms: _157  and  _159
REMARK   67  A    between atoms: _159  and  _160
REMARK   68  A    between atoms: _163  and  _165
REMARK   69  A    between atoms: _165  and  _166
REMARK   70  A    between atoms: _165  and  _168
REMARK   71  A    between atoms: _168  and  _169
REMARK   72  A    between atoms: _174  and  _176
REMARK   73  A    between atoms: _176  and  _177
REMARK   74  A    between atoms: _180  and  _182
REMARK   75  A    between atoms: _182  and  _183
REMARK   76  A    between atoms: _186  and  _188
REMARK   77  A    between atoms: _188  and  _189
REMARK   78  A    between atoms: _188  and  _191
REMARK   79  A    between atoms: _191  and  _192
REMARK   80  A    between atoms: _197  and  _199
REMARK   81  A    between atoms: _199  and  _200
REMARK   82  A    between atoms: _199  and  _202
REMARK   83  A    between atoms: _202  and  _203
REMARK   84  A    between atoms: _206  and  _208
REMARK   85  A    between atoms: _208  and  _209
REMARK   86  A    between atoms: _211  and  _213
REMARK   87  A    between atoms: _213  and  _214
REMARK   88  A    between atoms: _213  and  _216
REMARK   89  A    between atoms: _216  and  _217
REMARK   90  A    between atoms: _217  and  _218
REMARK   91  A    between atoms: _221  and  _223
REMARK   92  A    between atoms: _223  and  _224
REMARK   93  A    between atoms: _223  and  _226
REMARK   94  A    between atoms: _226  and  _227
REMARK   95  A    between atoms: _230  and  _232
REMARK   96  A    between atoms: _232  and  _233
REMARK   97  A    between atoms: _232  and  _235
REMARK   98  A    between atoms: _235  and  _236
REMARK   99  A    between atoms: _238  and  _240
REMARK  100  A    between atoms: _240  and  _241
REMARK  101  A    between atoms: _240  and  _243
REMARK  102  A    between atoms: _243  and  _244
REMARK  103  A    between atoms: _247  and  _249
REMARK  104  A    between atoms: _249  and  _250
REMARK  105  A    between atoms: _249  and  _252
REMARK  106  A    between atoms: _252  and  _253
REMARK  107  A    between atoms: _253  and  _254
REMARK  108  A    between atoms: _256  and  _258
REMARK  109  A    between atoms: _258  and  _259
REMARK  110  A    between atoms: _262  and  _264
REMARK  111  A    between atoms: _264  and  _265
REMARK  112  A    between atoms: _268  and  _270
REMARK  113  A    between atoms: _270  and  _271
REMARK  114  A    between atoms: _270  and  _273
REMARK  115  A    between atoms: _273  and  _274
REMARK  116  A    between atoms: _277  and  _279
REMARK  117  A    between atoms: _279  and  _280
REMARK  118  A    between atoms: _279  and  _282
REMARK  119  A    between atoms: _282  and  _283
REMARK  120  A    between atoms: _288  and  _290
REMARK  121  A    between atoms: _290  and  _291
REMARK  122  A    between atoms: _290  and  _293
REMARK  123  A    between atoms: _293  and  _294
REMARK  124  A    between atoms: _294  and  _295
REMARK  125  A    between atoms: _298  and  _300
REMARK  126  A    between atoms: _300  and  _301
REMARK  127  A    between atoms: _300  and  _303
REMARK  128  A    between atoms: _303  and  _304
REMARK  129  A    between atoms: _307  and  _309
REMARK  130  A    between atoms: _309  and  _310
REMARK  131  A    between atoms: _309  and  _312
REMARK  132  A    between atoms: _312  and  _313
REMARK  133  A    between atoms: _313  and  _314
REMARK  134  A    between atoms: _314  and  _315
REMARK  135  A    between atoms: _324  and  _326
REMARK  136  A    between atoms: _326  and  _327
REMARK  137  A    between atoms: _329  and  _331
REMARK  138  A    between atoms: _331  and  _332
REMARK  139  A    between atoms: _331  and  _334
REMARK  140  A    between atoms: _334  and  _335
REMARK  141  A    between atoms: _335  and  _336
REMARK  142  A    between atoms: _338  and  _340
REMARK  143  A    between atoms: _340  and  _341
REMARK  144  A    between atoms: _340  and  _343
REMARK  145  A    between atoms: _343  and  _344
REMARK  146  A    between atoms: _344  and  _345
REMARK  147  A    between atoms: _347  and  _349
REMARK  148  A    between atoms: _349  and  _350
REMARK  149  A    between atoms: _349  and  _352
REMARK  150  A    between atoms: _352  and  _353
REMARK  151  A    between atoms: _358  and  _360
REMARK  152  A    between atoms: _360  and  _361
REMARK  153  A    between atoms: _360  and  _363
REMARK  154  A    between atoms: _363  and  _364
REMARK  155  A    between atoms: _364  and  _365
REMARK  156  A    between atoms: _367  and  _369
REMARK  157  A    between atoms: _369  and  _370
REMARK  158  A    between atoms: _369  and  _372
REMARK  159  A    between atoms: _372  and  _373
REMARK  160  A    between atoms: _376  and  _378
REMARK  161  A    between atoms: _378  and  _379
REMARK  162  A    between atoms: _378  and  _381
REMARK  163  A    between atoms: _381  and  _382
REMARK  164  A    between atoms: _384  and  _386
REMARK  165  A    between atoms: _386  and  _387
REMARK  166  A    between atoms: _386  and  _389
REMARK  167  A    between atoms: _389  and  _390
REMARK  168  A    between atoms: _390  and  _391
REMARK  169  A    between atoms: _391  and  _392
REMARK  170  A    between atoms: _392  and  _393
REMARK  171  A    between atoms: _397  and  _399
REMARK  172  A    between atoms: _399  and  _400
REMARK  173  A    between atoms: _399  and  _402
REMARK  174  A    between atoms: _402  and  _403
REMARK  175  A    between atoms: _406  and  _408
REMARK  176  A    between atoms: _408  and  _409
REMARK  177  A    between atoms: _408  and  _411
REMARK  178  A    between atoms: _411  and  _412
REMARK  179  A    between atoms: _412  and  _413
REMARK  180  A    between atoms: _416  and  _418
REMARK  181  A    between atoms: _418  and  _419
REMARK  182  A    between atoms: _422  and  _424
REMARK  183  A    between atoms: _424  and  _425
REMARK  184  A    between atoms: _424  and  _427
REMARK  185  A    between atoms: _430  and  _432
REMARK  186  A    between atoms: _432  and  _433
REMARK  187  A    between atoms: _432  and  _435
REMARK  188  A    between atoms: _435  and  _436
REMARK  189  A    between atoms: _438  and  _440
REMARK  190  A    between atoms: _440  and  _441
REMARK  191  A    between atoms: _443  and  _445
REMARK  192  A    between atoms: _445  and  _446
REMARK  193  A    between atoms: _445  and  _448
REMARK  194  A    between atoms: _448  and  _449
REMARK  195  A    between atoms: _454  and  _456
REMARK  196  A    between atoms: _456  and  _457
REMARK  197  A    between atoms: _456  and  _459
REMARK  198  A    between atoms: _459  and  _460
REMARK  199  A    between atoms: _465  and  _466
REMARK  200  A    between atoms: _468  and  _470
REMARK  201  A    between atoms: _470  and  _471
REMARK  202  A    between atoms: _470  and  _473
REMARK  203  A    between atoms: _475  and  _477
REMARK  204  A    between atoms: _477  and  _478
REMARK  205  A    between atoms: _477  and  _480
REMARK  206  A    between atoms: _480  and  _481
REMARK  207  A    between atoms: _484  and  _486
REMARK  208  A    between atoms: _486  and  _487
REMARK  209  A    between atoms: _486  and  _489
REMARK  210  A    between atoms: _489  and  _490
REMARK  211  A    between atoms: _493  and  _495
REMARK  212  A    between atoms: _495  and  _496
REMARK  213  A    between atoms: _495  and  _498
REMARK  214  A    between atoms: _498  and  _499
REMARK  215  A    between atoms: _499  and  _500
REMARK  216  A    between atoms: _500  and  _501
REMARK  217  A    between atoms: _501  and  _502
REMARK  218  A    between atoms: _506  and  _508
REMARK  219  A    between atoms: _508  and  _509
REMARK  220  A    between atoms: _508  and  _511
REMARK  221  A    between atoms: _511  and  _512
REMARK  222  A    between atoms: _512  and  _513
REMARK  223  A    between atoms: _513  and  _514
REMARK  224  A    between atoms: _514  and  _515
REMARK  225  A    between atoms: _519  and  _521
REMARK  226  A    between atoms: _521  and  _522
REMARK  227  A    between atoms: _521  and  _524
REMARK  228  A    between atoms: _524  and  _525
REMARK  229  A    between atoms: _525  and  _526
REMARK  230  A    between atoms: _526  and  _527
REMARK  231  A    between atoms: _536  and  _538
REMARK  232  A    between atoms: _538  and  _539
REMARK  233  A    between atoms: _538  and  _541
REMARK  234  A    between atoms: _541  and  _542
REMARK  235  A    between atoms: _545  and  _547
REMARK  236  A    between atoms: _547  and  _548
REMARK  237  A    between atoms: _551  and  _553
REMARK  238  A    between atoms: _553  and  _554
REMARK  239  A    between atoms: _553  and  _556
REMARK  240  A    between atoms: _556  and  _557
REMARK  241  A    between atoms: _557  and  _558
REMARK                            x       y       z     vdW  Elec       q    Type
REMARK                         _______ _______ _______ _____ _____    ______ ____
ROOT
ATOM      1  CA  ARG A   2      -7.247  17.043  41.352  0.00  0.00    +0.149 C 
ENDROOT
BRANCH   1   3
ATOM      2  C   THR A   1      -5.110  16.025  40.668  0.00  0.00    +0.241 C 
ATOM      3  N   ARG A   2      -5.834  17.083  41.016  0.00  0.00    -0.297 N 
ATOM      4  H   ARG A   2      -5.355  18.006  41.050  0.00  0.00    +0.150 HD
ATOM      5  O   THR A   1      -5.515  14.867  40.708  0.00  0.00    -0.274 OA
BRANCH   2   6
ATOM      6  CA  THR A   1      -3.704  16.360  40.215  0.00  0.00    +0.172 C 
BRANCH   6   7
ATOM      7  N   THR A   1      -2.793  15.220  40.276  0.00  0.00    -0.236 NA
ATOM      8  H   THR A   1      -3.052  14.332  39.801  0.00  0.00    +0.142 HD
ENDBRANCH   6   7
BRANCH   6   9
ATOM      9  CB  THR A   1      -3.775  16.951  38.797  0.00  0.00    +0.135 C 
ATOM     10  CG2 THR A   1      -2.386  17.187  38.213  0.00  0.00    +0.034 C 
BRANCH   9  11
ATOM     11  OG1 THR A   1      -4.395  16.008  37.912  0.00  0.00    -0.383 OA
ATOM     12  HG1 THR A   1      -4.439  16.392  37.001  0.00  0.00    +0.210 HD
ENDBRANCH   9  11
ENDBRANCH   6   9
ENDBRANCH   2   6
ENDBRANCH   1   3
BRANCH   1  13
ATOM     13  C   ARG A   2      -7.874  18.328  40.803  0.00  0.00    +0.241 C 
ATOM     14  O   ARG A   2      -7.329  19.417  40.971  0.00  0.00    -0.273 OA
ATOM     15  N   GLY A   3      -9.026  18.200  40.158  0.00  0.00    -0.296 N 
ATOM     16  H   GLY A   3      -9.531  17.292  40.198  0.00  0.00    +0.150 HD
BRANCH  15  17
ATOM     17  CA  GLY A   3      -9.599  19.292  39.399  0.00  0.00    +0.163 C 
BRANCH  17  18
ATOM     18  C   GLY A   3     -11.033  19.559  39.789  0.00  0.00    +0.229 C 
ATOM     19  O   GLY A   3     -11.935  19.227  39.027  0.00  0.00    -0.286 OA
ENDBRANCH  17  18
ENDBRANCH  15  17
ENDBRANCH   1  13
BRANCH   1  20
ATOM     20  CB  ARG A   2      -7.421  16.950  42.858  0.00  0.00    +0.033 C 
BRANCH  20  21
ATOM     21  CG  ARG A   2      -8.869  16.976  43.349  0.00  0.00    +0.045 C 
BRANCH  21  22
ATOM     22  CD  ARG A   2      -9.442  15.613  43.652  0.00  0.00    +0.174 C 
BRANCH  22  23
ATOM     23  NE  ARG A   2      -9.814  14.896  42.439  0.00  0.00    -0.265 N 
ATOM     24  CZ  ARG A   2     -10.175  13.617  42.401  0.00  0.00    +0.342 C 
ATOM     25  NH2 ARG A   2     -10.227  12.876  43.508  0.00  0.00    -0.292 N 
ATOM     26 HH21 ARG A   2      -9.982  13.296  44.427  0.00  0.00    +0.255 HD
ATOM     27 HH22 ARG A   2     -10.512  11.877  43.452  0.00  0.00    +0.255 HD
ATOM     28  NH1 ARG A   2     -10.504  13.071  41.239  0.00  0.00    -0.292 N 
ATOM     29 HH11 ARG A   2     -10.788  12.071  41.196  0.00  0.00    +0.255 HD
ATOM     30 HH12 ARG A   2     -10.478  13.642  40.370  0.00  0.00    +0.255 HD
ATOM     31  HE  ARG A   2      -9.796  15.421  41.541  0.00  0.00    +0.259 HD
ENDBRANCH  22  23
ENDBRANCH  21  22
ENDBRANCH  20  21
ENDBRANCH   1  20
TORSDOF 12
REMARK  Name = ../refined-set-2016/3ccw/3ccw_pocket.pdb
REMARK  241 active torsions:
REMARK  status: ('A' for Active; 'I' for Inactive)
REMARK    1  A    between atoms: _1  and  _3
REMARK    2  A    between atoms: _3  and  _4
REMARK    3  A    between atoms: _3  and  _6
REMARK    4  A    between atoms: _6  and  _7
REMARK    5  A    between atoms: _10  and  _12
REMARK    6  A    between atoms: _12  and  _13
REMARK    7  A    between atoms: _12  and  _15
REMARK    8  A    between atoms: _15  and  _16
REMARK    9  A    between atoms: _16  and  _17
REMARK   10  A    between atoms: _20  and  _22
REMARK   11  A    between atoms: _22  and  _23
REMARK   12  A    between atoms: _25  and  _27
REMARK   13  A    between atoms: _27  and  _28
REMARK   14  A    between atoms: _27  and  _30
REMARK   15  A    between atoms: _32  and  _34
REMARK   16  A    between atoms: _34  and  _35
REMARK   17  A    between atoms: _34  and  _37
REMARK   18  A    between atoms: _37  and  _38
REMARK   19  A    between atoms: _41  and  _43
REMARK   20  A    between atoms: _43  and  _44
REMARK   21  A    between atoms: _43  and  _46
REMARK   22  A    between atoms: _49  and  _51
REMARK   23  A    between atoms: _51  and  _52
REMARK   24  A    between atoms: _55  and  _57
REMARK   25  A    between atoms: _57  and  _58
REMARK   26  A    between atoms: _57  and  _60
REMARK   27  A    between atoms: _60  and  _61
REMARK   28  A    between atoms: _63  and  _65
REMARK   29  A    between atoms: _65  and  _66
REMARK   30  A    between atoms: _65  and  _68
REMARK   31  A    between atoms: _68  and  _69
REMARK   32  A    between atoms: _72  and  _74
REMARK   33  A    between atoms: _74  and  _75
REMARK   34  A    between atoms: _74  and  _77
REMARK   35  A    between atoms: _77  and  _78
REMARK   36  A    between atoms: _83  and  _85
REMARK   37  A    between atoms: _85  and  _86
REMARK   38  A    between atoms: _85  and  _88
REMARK   39  A    between atoms: _88  and  _89
REMARK   40  A    between atoms: _89  and  _90
REMARK   41  A    between atoms: _90  and  _91
REMARK   42  A    between atoms: _100  and  _102
REMARK   43  A    between atoms: _102  and  _103
REMARK   44  A    between atoms: _105  and  _107
REMARK   45  A    between atoms: _107  and  _108
REMARK   46  A    between atoms: _107  and  _110
REMARK   47  A    between atoms: _113  and  _115
REMARK   48  A    between atoms: _115  and  _116
REMARK   49  A    between atoms: _115  and  _118
REMARK   50  A    between atoms: _118  and  _119
REMARK   51  A    between atoms: _122  and  _124
REMARK   52  A    between atoms: _124  and  _125
REMARK   53  A    between atoms: _124  and  _127
REMARK   54  A    between atoms: _127  and  _128
REMARK   55  A    between atoms: _128  and  _129
REMARK   56  A    between atoms: _129  and  _130
REMARK   57  A    between atoms: _130  and  _131
REMARK   58  A    between atoms: _135  and  _137
REMARK   59  A    between atoms: _137  and  _138
REMARK   60  A    between atoms: _137  and  _140
REMARK   61  A    between atoms: _140  and  _141
REMARK   62  A    between atoms: _146  and  _148
REMARK   63  A    between atoms: _148  and  _149
REMARK   64  A    between atoms: _148  and  _151
REMARK   65  A    between atoms: _151  and  _152
REMARK   66  A    between atoms: _157  and  _159
REMARK   67  A    between atoms: _159  and  _160
REMARK   68  A    between atoms: _163  and  _165
REMARK   69  A    between atoms: _165  and  _166
REMARK   70  A    between atoms: _165  and  _168
REMARK   71  A    between atoms: _168  and  _169
REMARK   72  A    between atoms: _174  and  _176
REMARK   73  A    between atoms: _176  and  _177
REMARK   74  A    between atoms: _180  and  _182
REMARK   75  A    between atoms: _182  and  _183
REMARK   76  A    between atoms: _186  and  _188
REMARK   77  A    between atoms: _188  and  _189
REMARK   78  A    between atoms: _188  and  _191
REMARK   79  A    between atoms: _191  and  _192
REMARK   80  A    between atoms: _197  and  _199
REMARK   81  A    between atoms: _199  and  _200
REMARK   82  A    between atoms: _199  and  _202
REMARK   83  A    between atoms: _202  and  _203
REMARK   84  A    between atoms: _206  and  _208
REMARK   85  A    between atoms: _208  and  _209
REMARK   86  A    between atoms: _211  and  _213
REMARK   87  A    between atoms: _213  and  _214
REMARK   88  A    between atoms: _213  and  _216
REMARK   89  A    between atoms: _216  and  _217
REMARK   90  A    between atoms: _217  and  _218
REMARK   91  A    between atoms: _221  and  _223
REMARK   92  A    between atoms: _223  and  _224
REMARK   93  A    between atoms: _223  and  _226
REMARK   94  A    between atoms: _226  and  _227
REMARK   95  A    between atoms: _230  and  _232
REMARK   96  A    between atoms: _232  and  _233
REMARK   97  A    between atoms: _232  and  _235
REMARK   98  A    between atoms: _235  and  _236
REMARK   99  A    between atoms: _238  and  _240
REMARK  100  A    between atoms: _240  and  _241
REMARK  101  A    between atoms: _240  and  _243
REMARK  102  A    between atoms: _243  and  _244
REMARK  103  A    between atoms: _247  and  _249
REMARK  104  A    between atoms: _249  and  _250
REMARK  105  A    between atoms: _249  and  _252
REMARK  106  A    between atoms: _252  and  _253
REMARK  107  A    between atoms: _253  and  _254
REMARK  108  A    between atoms: _256  and  _258
REMARK  109  A    between atoms: _258  and  _259
REMARK  110  A    between atoms: _262  and  _264
REMARK  111  A    between atoms: _264  and  _265
REMARK  112  A    between atoms: _268  and  _270
REMARK  113  A    between atoms: _270  and  _271
REMARK  114  A    between atoms: _270  and  _273
REMARK  115  A    between atoms: _273  and  _274
REMARK  116  A    between atoms: _277  and  _279
REMARK  117  A    between atoms: _279  and  _280
REMARK  118  A    between atoms: _279  and  _282
REMARK  119  A    between atoms: _282  and  _283
REMARK  120  A    between atoms: _288  and  _290
REMARK  121  A    between atoms: _290  and  _291
REMARK  122  A    between atoms: _290  and  _293
REMARK  123  A    between atoms: _293  and  _294
REMARK  124  A    between atoms: _294  and  _295
REMARK  125  A    between atoms: _298  and  _300
REMARK  126  A    between atoms: _300  and  _301
REMARK  127  A    between atoms: _300  and  _303
REMARK  128  A    between atoms: _303  and  _304
REMARK  129  A    between atoms: _307  and  _309
REMARK  130  A    between atoms: _309  and  _310
REMARK  131  A    between atoms: _309  and  _312
REMARK  132  A    between atoms: _312  and  _313
REMARK  133  A    between atoms: _313  and  _314
REMARK  134  A    between atoms: _314  and  _315
REMARK  135  A    between atoms: _324  and  _326
REMARK  136  A    between atoms: _326  and  _327
REMARK  137  A    between atoms: _329  and  _331
REMARK  138  A    between atoms: _331  and  _332
REMARK  139  A    between atoms: _331  and  _334
REMARK  140  A    between atoms: _334  and  _335
REMARK  141  A    between atoms: _335  and  _336
REMARK  142  A    between atoms: _338  and  _340
REMARK  143  A    between atoms: _340  and  _341
REMARK  144  A    between atoms: _340  and  _343
REMARK  145  A    between atoms: _343  and  _344
REMARK  146  A    between atoms: _344  and  _345
REMARK  147  A    between atoms: _347  and  _349
REMARK  148  A    between atoms: _349  and  _350
REMARK  149  A    between atoms: _349  and  _352
REMARK  150  A    between atoms: _352  and  _353
REMARK  151  A    between atoms: _358  and  _360
REMARK  152  A    between atoms: _360  and  _361
REMARK  153  A    between atoms: _360  and  _363
REMARK  154  A    between atoms: _363  and  _364
REMARK  155  A    between atoms: _364  and  _365
REMARK  156  A    between atoms: _367  and  _369
REMARK  157  A    between atoms: _369  and  _370
REMARK  158  A    between atoms: _369  and  _372
REMARK  159  A    between atoms: _372  and  _373
REMARK  160  A    between atoms: _376  and  _378
REMARK  161  A    between atoms: _378  and  _379
REMARK  162  A    between atoms: _378  and  _381
REMARK  163  A    between atoms: _381  and  _382
REMARK  164  A    between atoms: _384  and  _386
REMARK  165  A    between atoms: _386  and  _387
REMARK  166  A    between atoms: _386  and  _389
REMARK  167  A    between atoms: _389  and  _390
REMARK  168  A    between atoms: _390  and  _391
REMARK  169  A    between atoms: _391  and  _392
REMARK  170  A    between atoms: _392  and  _393
REMARK  171  A    between atoms: _397  and  _399
REMARK  172  A    between atoms: _399  and  _400
REMARK  173  A    between atoms: _399  and  _402
REMARK  174  A    between atoms: _402  and  _403
REMARK  175  A    between atoms: _406  and  _408
REMARK  176  A    between atoms: _408  and  _409
REMARK  177  A    between atoms: _408  and  _411
REMARK  178  A    between atoms: _411  and  _412
REMARK  179  A    between atoms: _412  and  _413
REMARK  180  A    between atoms: _416  and  _418
REMARK  181  A    between atoms: _418  and  _419
REMARK  182  A    between atoms: _422  and  _424
REMARK  183  A    between atoms: _424  and  _425
REMARK  184  A    between atoms: _424  and  _427
REMARK  185  A    between atoms: _430  and  _432
REMARK  186  A    between atoms: _432  and  _433
REMARK  187  A    between atoms: _432  and  _435
REMARK  188  A    between atoms: _435  and  _436
REMARK  189  A    between atoms: _438  and  _440
REMARK  190  A    between atoms: _440  and  _441
REMARK  191  A    between atoms: _443  and  _445
REMARK  192  A    between atoms: _445  and  _446
REMARK  193  A    between atoms: _445  and  _448
REMARK  194  A    between atoms: _448  and  _449
REMARK  195  A    between atoms: _454  and  _456
REMARK  196  A    between atoms: _456  and  _457
REMARK  197  A    between atoms: _456  and  _459
REMARK  198  A    between atoms: _459  and  _460
REMARK  199  A    between atoms: _465  and  _466
REMARK  200  A    between atoms: _468  and  _470
REMARK  201  A    between atoms: _470  and  _471
REMARK  202  A    between atoms: _470  and  _473
REMARK  203  A    between atoms: _475  and  _477
REMARK  204  A    between atoms: _477  and  _478
REMARK  205  A    between atoms: _477  and  _480
REMARK  206  A    between atoms: _480  and  _481
REMARK  207  A    between atoms: _484  and  _486
REMARK  208  A    between atoms: _486  and  _487
REMARK  209  A    between atoms: _486  and  _489
REMARK  210  A    between atoms: _489  and  _490
REMARK  211  A    between atoms: _493  and  _495
REMARK  212  A    between atoms: _495  and  _496
REMARK  213  A    between atoms: _495  and  _498
REMARK  214  A    between atoms: _498  and  _499
REMARK  215  A    between atoms: _499  and  _500
REMARK  216  A    between atoms: _500  and  _501
REMARK  217  A    between atoms: _501  and  _502
REMARK  218  A    between atoms: _506  and  _508
REMARK  219  A    between atoms: _508  and  _509
REMARK  220  A    between atoms: _508  and  _511
REMARK  221  A    between atoms: _511  and  _512
REMARK  222  A    between atoms: _512  and  _513
REMARK  223  A    between atoms: _513  and  _514
REMARK  224  A    between atoms: _514  and  _515
REMARK  225  A    between atoms: _519  and  _521
REMARK  226  A    between atoms: _521  and  _522
REMARK  227  A    between atoms: _521  and  _524
REMARK  228  A    between atoms: _524  and  _525
REMARK  229  A    between atoms: _525  and  _526
REMARK  230  A    between atoms: _526  and  _527
REMARK  231  A    between atoms: _536  and  _538
REMARK  232  A    between atoms: _538  and  _539
REMARK  233  A    between atoms: _538  and  _541
REMARK  234  A    between atoms: _541  and  _542
REMARK  235  A    between atoms: _545  and  _547
REMARK  236  A    between atoms: _547  and  _548
REMARK  237  A    between atoms: _551  and  _553
REMARK  238  A    between atoms: _553  and  _554
REMARK  239  A    between atoms: _553  and  _556
REMARK  240  A    between atoms: _556  and  _557
REMARK  241  A    between atoms: _557  and  _558
REMARK                            x       y       z     vdW  Elec       q    Type
REMARK                         _______ _______ _______ _____ _____    ______ ____
ROOT
ATOM      1  CA  MET A   1       0.117   7.594  43.744  0.00  0.00    +0.134 C 
ENDROOT
BRANCH   1   2
ATOM      2  N   MET A   1       0.702   7.125  44.998  0.00  0.00    -0.239 NA
ATOM      3  H   MET A   1       0.323   6.269  45.451  0.00  0.00    +0.142 HD
ENDBRANCH   1   2
BRANCH   1   4
ATOM      4  C   MET A   1      -0.403   9.013  43.963  0.00  0.00    +0.224 C 
ATOM      5  O   MET A   1      -0.235   9.891  43.114  0.00  0.00    -0.287 OA
ENDBRANCH   1   4
BRANCH   1   6
ATOM      6  CB  MET A   1      -1.001   6.655  43.290  0.00  0.00    +0.037 C 
BRANCH   6   7
ATOM      7  CG  MET A   1      -1.681   7.072  41.988  0.00  0.00    +0.059 C 
BRANCH   7   8
ATOM      8  SD  MET A   1      -3.307   7.799  42.274  0.00  0.00    -0.139 S 
ATOM      9  CE  MET A   1      -4.199   6.385  42.892  0.00  0.00    +0.069 C 
ENDBRANCH   7   8
ENDBRANCH   6   7
ENDBRANCH   1   6
TORSDOF 5
REMARK  Name = ../refined-set-2016/3ccw/3ccw_pocket.pdb
REMARK  241 active torsions:
REMARK  status: ('A' for Active; 'I' for Inactive)
REMARK    1  A    between atoms: _1  and  _3
REMARK    2  A    between atoms: _3  and  _4
REMARK    3  A    between atoms: _3  and  _6
REMARK    4  A    between atoms: _6  and  _7
REMARK    5  A    between atoms: _10  and  _12
REMARK    6  A    between atoms: _12  and  _13
REMARK    7  A    between atoms: _12  and  _15
REMARK    8  A    between atoms: _15  and  _16
REMARK    9  A    between atoms: _16  and  _17
REMARK   10  A    between atoms: _20  and  _22
REMARK   11  A    between atoms: _22  and  _23
REMARK   12  A    between atoms: _25  and  _27
REMARK   13  A    between atoms: _27  and  _28
REMARK   14  A    between atoms: _27  and  _30
REMARK   15  A    between atoms: _32  and  _34
REMARK   16  A    between atoms: _34  and  _35
REMARK   17  A    between atoms: _34  and  _37
REMARK   18  A    between atoms: _37  and  _38
REMARK   19  A    between atoms: _41  and  _43
REMARK   20  A    between atoms: _43  and  _44
REMARK   21  A    between atoms: _43  and  _46
REMARK   22  A    between atoms: _49  and  _51
REMARK   23  A    between atoms: _51  and  _52
REMARK   24  A    between atoms: _55  and  _57
REMARK   25  A    between atoms: _57  and  _58
REMARK   26  A    between atoms: _57  and  _60
REMARK   27  A    between atoms: _60  and  _61
REMARK   28  A    between atoms: _63  and  _65
REMARK   29  A    between atoms: _65  and  _66
REMARK   30  A    between atoms: _65  and  _68
REMARK   31  A    between atoms: _68  and  _69
REMARK   32  A    between atoms: _72  and  _74
REMARK   33  A    between atoms: _74  and  _75
REMARK   34  A    between atoms: _74  and  _77
REMARK   35  A    between atoms: _77  and  _78
REMARK   36  A    between atoms: _83  and  _85
REMARK   37  A    between atoms: _85  and  _86
REMARK   38  A    between atoms: _85  and  _88
REMARK   39  A    between atoms: _88  and  _89
REMARK   40  A    between atoms: _89  and  _90
REMARK   41  A    between atoms: _90  and  _91
REMARK   42  A    between atoms: _100  and  _102
REMARK   43  A    between atoms: _102  and  _103
REMARK   44  A    between atoms: _105  and  _107
REMARK   45  A    between atoms: _107  and  _108
REMARK   46  A    between atoms: _107  and  _110
REMARK   47  A    between atoms: _113  and  _115
REMARK   48  A    between atoms: _115  and  _116
REMARK   49  A    between atoms: _115  and  _118
REMARK   50  A    between atoms: _118  and  _119
REMARK   51  A    between atoms: _122  and  _124
REMARK   52  A    between atoms: _124  and  _125
REMARK   53  A    between atoms: _124  and  _127
REMARK   54  A    between atoms: _127  and  _128
REMARK   55  A    between atoms: _128  and  _129
REMARK   56  A    between atoms: _129  and  _130
REMARK   57  A    between atoms: _130  and  _131
REMARK   58  A    between atoms: _135  and  _137
REMARK   59  A    between atoms: _137  and  _138
REMARK   60  A    between atoms: _137  and  _140
REMARK   61  A    between atoms: _140  and  _141
REMARK   62  A    between atoms: _146  and  _148
REMARK   63  A    between atoms: _148  and  _149
REMARK   64  A    between atoms: _148  and  _151
REMARK   65  A    between atoms: _151  and  _152
REMARK   66  A    between atoms: _157  and  _159
REMARK   67  A    between atoms: _159  and  _160
REMARK   68  A    between atoms: _163  and  _165
REMARK   69  A    between atoms: _165  and  _166
REMARK   70  A    between atoms: _165  and  _168
REMARK   71  A    between atoms: _168  and  _169
REMARK   72  A    between atoms: _174  and  _176
REMARK   73  A    between atoms: _176  and  _177
REMARK   74  A    between atoms: _180  and  _182
REMARK   75  A    between atoms: _182  and  _183
REMARK   76  A    between atoms: _186  and  _188
REMARK   77  A    between atoms: _188  and  _189
REMARK   78  A    between atoms: _188  and  _191
REMARK   79  A    between atoms: _191  and  _192
REMARK   80  A    between atoms: _197  and  _199
REMARK   81  A    between atoms: _199  and  _200
REMARK   82  A    between atoms: _199  and  _202
REMARK   83  A    between atoms: _202  and  _203
REMARK   84  A    between atoms: _206  and  _208
REMARK   85  A    between atoms: _208  and  _209
REMARK   86  A    between atoms: _211  and  _213
REMARK   87  A    between atoms: _213  and  _214
REMARK   88  A    between atoms: _213  and  _216
REMARK   89  A    between atoms: _216  and  _217
REMARK   90  A    between atoms: _217  and  _218
REMARK   91  A    between atoms: _221  and  _223
REMARK   92  A    between atoms: _223  and  _224
REMARK   93  A    between atoms: _223  and  _226
REMARK   94  A    between atoms: _226  and  _227
REMARK   95  A    between atoms: _230  and  _232
REMARK   96  A    between atoms: _232  and  _233
REMARK   97  A    between atoms: _232  and  _235
REMARK   98  A    between atoms: _235  and  _236
REMARK   99  A    between atoms: _238  and  _240
REMARK  100  A    between atoms: _240  and  _241
REMARK  101  A    between atoms: _240  and  _243
REMARK  102  A    between atoms: _243  and  _244
REMARK  103  A    between atoms: _247  and  _249
REMARK  104  A    between atoms: _249  and  _250
REMARK  105  A    between atoms: _249  and  _252
REMARK  106  A    between atoms: _252  and  _253
REMARK  107  A    between atoms: _253  and  _254
REMARK  108  A    between atoms: _256  and  _258
REMARK  109  A    between atoms: _258  and  _259
REMARK  110  A    between atoms: _262  and  _264
REMARK  111  A    between atoms: _264  and  _265
REMARK  112  A    between atoms: _268  and  _270
REMARK  113  A    between atoms: _270  and  _271
REMARK  114  A    between atoms: _270  and  _273
REMARK  115  A    between atoms: _273  and  _274
REMARK  116  A    between atoms: _277  and  _279
REMARK  117  A    between atoms: _279  and  _280
REMARK  118  A    between atoms: _279  and  _282
REMARK  119  A    between atoms: _282  and  _283
REMARK  120  A    between atoms: _288  and  _290
REMARK  121  A    between atoms: _290  and  _291
REMARK  122  A    between atoms: _290  and  _293
REMARK  123  A    between atoms: _293  and  _294
REMARK  124  A    between atoms: _294  and  _295
REMARK  125  A    between atoms: _298  and  _300
REMARK  126  A    between atoms: _300  and  _301
REMARK  127  A    between atoms: _300  and  _303
REMARK  128  A    between atoms: _303  and  _304
REMARK  129  A    between atoms: _307  and  _309
REMARK  130  A    between atoms: _309  and  _310
REMARK  131  A    between atoms: _309  and  _312
REMARK  132  A    between atoms: _312  and  _313
REMARK  133  A    between atoms: _313  and  _314
REMARK  134  A    between atoms: _314  and  _315
REMARK  135  A    between atoms: _324  and  _326
REMARK  136  A    between atoms: _326  and  _327
REMARK  137  A    between atoms: _329  and  _331
REMARK  138  A    between atoms: _331  and  _332
REMARK  139  A    between atoms: _331  and  _334
REMARK  140  A    between atoms: _334  and  _335
REMARK  141  A    between atoms: _335  and  _336
REMARK  142  A    between atoms: _338  and  _340
REMARK  143  A    between atoms: _340  and  _341
REMARK  144  A    between atoms: _340  and  _343
REMARK  145  A    between atoms: _343  and  _344
REMARK  146  A    between atoms: _344  and  _345
REMARK  147  A    between atoms: _347  and  _349
REMARK  148  A    between atoms: _349  and  _350
REMARK  149  A    between atoms: _349  and  _352
REMARK  150  A    between atoms: _352  and  _353
REMARK  151  A    between atoms: _358  and  _360
REMARK  152  A    between atoms: _360  and  _361
REMARK  153  A    between atoms: _360  and  _363
REMARK  154  A    between atoms: _363  and  _364
REMARK  155  A    between atoms: _364  and  _365
REMARK  156  A    between atoms: _367  and  _369
REMARK  157  A    between atoms: _369  and  _370
REMARK  158  A    between atoms: _369  and  _372
REMARK  159  A    between atoms: _372  and  _373
REMARK  160  A    between atoms: _376  and  _378
REMARK  161  A    between atoms: _378  and  _379
REMARK  162  A    between atoms: _378  and  _381
REMARK  163  A    between atoms: _381  and  _382
REMARK  164  A    between atoms: _384  and  _386
REMARK  165  A    between atoms: _386  and  _387
REMARK  166  A    between atoms: _386  and  _389
REMARK  167  A    between atoms: _389  and  _390
REMARK  168  A    between atoms: _390  and  _391
REMARK  169  A    between atoms: _391  and  _392
REMARK  170  A    between atoms: _392  and  _393
REMARK  171  A    between atoms: _397  and  _399
REMARK  172  A    between atoms: _399  and  _400
REMARK  173  A    between atoms: _399  and  _402
REMARK  174  A    between atoms: _402  and  _403
REMARK  175  A    between atoms: _406  and  _408
REMARK  176  A    between atoms: _408  and  _409
REMARK  177  A    between atoms: _408  and  _411
REMARK  178  A    between atoms: _411  and  _412
REMARK  179  A    between atoms: _412  and  _413
REMARK  180  A    between atoms: _416  and  _418
REMARK  181  A    between atoms: _418  and  _419
REMARK  182  A    between atoms: _422  and  _424
REMARK  183  A    between atoms: _424  and  _425
REMARK  184  A    between atoms: _424  and  _427
REMARK  185  A    between atoms: _430  and  _432
REMARK  186  A    between atoms: _432  and  _433
REMARK  187  A    between atoms: _432  and  _435
REMARK  188  A    between atoms: _435  and  _436
REMARK  189  A    between atoms: _438  and  _440
REMARK  190  A    between atoms: _440  and  _441
REMARK  191  A    between atoms: _443  and  _445
REMARK  192  A    between atoms: _445  and  _446
REMARK  193  A    between atoms: _445  and  _448
REMARK  194  A    between atoms: _448  and  _449
REMARK  195  A    between atoms: _454  and  _456
REMARK  196  A    between atoms: _456  and  _457
REMARK  197  A    between atoms: _456  and  _459
REMARK  198  A    between atoms: _459  and  _460
REMARK  199  A    between atoms: _465  and  _466
REMARK  200  A    between atoms: _468  and  _470
REMARK  201  A    between atoms: _470  and  _471
REMARK  202  A    between atoms: _470  and  _473
REMARK  203  A    between atoms: _475  and  _477
REMARK  204  A    between atoms: _477  and  _478
REMARK  205  A    between atoms: _477  and  _480
REMARK  206  A    between atoms: _480  and  _481
REMARK  207  A    between atoms: _484  and  _486
REMARK  208  A    between atoms: _486  and  _487
REMARK  209  A    between atoms: _486  and  _489
REMARK  210  A    between atoms: _489  and  _490
REMARK  211  A    between atoms: _493  and  _495
REMARK  212  A    between atoms: _495  and  _496
REMARK  213  A    between atoms: _495  and  _498
REMARK  214  A    between atoms: _498  and  _499
REMARK  215  A    between atoms: _499  and  _500
REMARK  216  A    between atoms: _500  and  _501
REMARK  217  A    between atoms: _501  and  _502
REMARK  218  A    between atoms: _506  and  _508
REMARK  219  A    between atoms: _508  and  _509
REMARK  220  A    between atoms: _508  and  _511
REMARK  221  A    between atoms: _511  and  _512
REMARK  222  A    between atoms: _512  and  _513
REMARK  223  A    between atoms: _513  and  _514
REMARK  224  A    between atoms: _514  and  _515
REMARK  225  A    between atoms: _519  and  _521
REMARK  226  A    between atoms: _521  and  _522
REMARK  227  A    between atoms: _521  and  _524
REMARK  228  A    between atoms: _524  and  _525
REMARK  229  A    between atoms: _525  and  _526
REMARK  230  A    between atoms: _526  and  _527
REMARK  231  A    between atoms: _536  and  _538
REMARK  232  A    between atoms: _538  and  _539
REMARK  233  A    between atoms: _538  and  _541
REMARK  234  A    between atoms: _541  and  _542
REMARK  235  A    between atoms: _545  and  _547
REMARK  236  A    between atoms: _547  and  _548
REMARK  237  A    between atoms: _551  and  _553
REMARK  238  A    between atoms: _553  and  _554
REMARK  239  A    between atoms: _553  and  _556
REMARK  240  A    between atoms: _556  and  _557
REMARK  241  A    between atoms: _557  and  _558
REMARK                            x       y       z     vdW  Elec       q    Type
REMARK                         _______ _______ _______ _____ _____    ______ ____
ROOT
ATOM      1  C   MET A   3      -3.757  14.440  49.003  0.00  0.00    +0.241 C 
ATOM      2  O   MET A   3      -3.951  15.455  49.676  0.00  0.00    -0.273 OA
ATOM      3  N   ILE A   4      -3.819  14.427  47.672  0.00  0.00    -0.297 N 
ATOM      4  H   ILE A   4      -3.669  13.529  47.170  0.00  0.00    +0.150 HD
ENDROOT
BRANCH   1   5
ATOM      5  CA  MET A   3      -3.428  13.111  49.679  0.00  0.00    +0.149 C 
BRANCH   5   8
ATOM      6  C   ASN A   2      -5.537  11.924  49.311  0.00  0.00    +0.241 C 
ATOM      7  O   ASN A   2      -6.191  12.701  50.011  0.00  0.00    -0.273 OA
ATOM      8  N   MET A   3      -4.226  12.042  49.103  0.00  0.00    -0.297 N 
ATOM      9  H   MET A   3      -3.753  11.338  48.502  0.00  0.00    +0.150 HD
BRANCH   6  10
ATOM     10  CA  ASN A   2      -6.223  10.758  48.602  0.00  0.00    +0.158 C 
BRANCH  10  12
ATOM     11  C   MET A   1      -5.673  11.215  46.267  0.00  0.00    +0.238 C 
ATOM     12  N   ASN A   2      -5.601  10.410  47.323  0.00  0.00    -0.297 N 
ATOM     13  H   ASN A   2      -5.089   9.509  47.238  0.00  0.00    +0.150 HD
ATOM     14  O   MET A   1      -6.221  12.309  46.298  0.00  0.00    -0.274 OA
BRANCH  11  15
ATOM     15  CA  MET A   1      -5.036  10.722  44.972  0.00  0.00    +0.146 C 
BRANCH  15  16
ATOM     16  N   MET A   1      -3.666  10.242  45.155  0.00  0.00    -0.238 NA
ATOM     17  H   MET A   1      -3.434   9.254  44.927  0.00  0.00    +0.142 HD
ENDBRANCH  15  16
BRANCH  15  18
ATOM     18  CB  MET A   1      -5.925   9.649  44.332  0.00  0.00    +0.038 C 
BRANCH  18  19
ATOM     19  CG  MET A   1      -5.945   9.718  42.814  0.00  0.00    +0.060 C 
BRANCH  19  20
ATOM     20  SD  MET A   1      -7.060  10.948  42.158  0.00  0.00    -0.139 S 
ATOM     21  CE  MET A   1      -8.616  10.217  42.555  0.00  0.00    +0.069 C 
ENDBRANCH  19  20
ENDBRANCH  18  19
ENDBRANCH  15  18
ENDBRANCH  11  15
ENDBRANCH  10  12
BRANCH  10  22
ATOM     22  CB  ASN A   2      -6.280   9.534  49.525  0.00  0.00    +0.114 C 
BRANCH  22  23
ATOM     23  CG  ASN A   2      -7.298   8.504  49.060  0.00  0.00    +0.222 C 
ATOM     24  ND2 ASN A   2      -7.020   7.232  49.324  0.00  0.00    -0.329 N 
ATOM     25 HD21 ASN A   2      -6.141   6.984  49.821  0.00  0.00    +0.145 HD
ATOM     26 HD22 ASN A   2      -7.682   6.484  49.033  0.00  0.00    +0.145 HD
ATOM     27  OD1 ASN A   2      -8.328   8.854  48.472  0.00  0.00    -0.275 OA
ENDBRANCH  22  23
ENDBRANCH  10  22
ENDBRANCH   6  10
ENDBRANCH   5   8
BRANCH   5  28
ATOM     28  CB  MET A   3      -1.938  12.791  49.506  0.00  0.00    +0.041 C 
BRANCH  28  29
ATOM     29  CG  MET A   3      -1.006  13.603  50.379  0.00  0.00    +0.060 C 
BRANCH  29  30
ATOM     30  SD  MET A   3      -0.669  15.240  49.710  0.00  0.00    -0.139 S 
ATOM     31  CE  MET A   3       0.479  14.886  48.470  0.00  0.00    +0.069 C 
ENDBRANCH  29  30
ENDBRANCH  28  29
ENDBRANCH   5  28
ENDBRANCH   1   5
BRANCH   3  32
ATOM     32  CA  ILE A   4      -4.090  15.633  46.897  0.00  0.00    +0.149 C 
BRANCH  32  33
ATOM     33  C   ILE A   4      -5.529  16.093  47.128  0.00  0.00    +0.241 C 
ATOM     34  N   SER A   5      -6.433  15.146  47.366  0.00  0.00    -0.295 N 
ATOM     35  H   SER A   5      -6.121  14.154  47.398  0.00  0.00    +0.150 HD
ATOM     36  O   ILE A   4      -5.802  17.284  47.104  0.00  0.00    -0.273 OA
BRANCH  34  37
ATOM     37  CA  SER A   5      -7.845  15.444  47.584  0.00  0.00    +0.178 C 
BRANCH  37  38
ATOM     38  C   SER A   5      -8.049  16.103  48.942  0.00  0.00    +0.243 C 
ATOM     39  N   LYS A   6      -7.336  15.592  49.942  0.00  0.00    -0.298 N 
ATOM     40  H   LYS A   6      -6.769  14.739  49.759  0.00  0.00    +0.150 HD
ATOM     41  O   SER A   5      -8.837  17.034  49.073  0.00  0.00    -0.273 OA
BRANCH  39  42
ATOM     42  CA  LYS A   6      -7.308  16.165  51.280  0.00  0.00    +0.137 C 
BRANCH  42  43
ATOM     43  C   LYS A   6      -6.791  17.605  51.237  0.00  0.00    +0.227 C 
ATOM     44  O   LYS A   6      -7.376  18.502  51.842  0.00  0.00    -0.286 OA
ENDBRANCH  42  43
BRANCH  42  45
ATOM     45  CB  LYS A   6      -6.412  15.304  52.176  0.00  0.00    +0.028 C 
BRANCH  45  46
ATOM     46  CG  LYS A   6      -6.391  15.679  53.655  0.00  0.00    -0.000 C 
BRANCH  46  47
ATOM     47  CD  LYS A   6      -5.547  14.658  54.448  0.00  0.00    -0.024 C 
BRANCH  47  48
ATOM     48  CE  LYS A   6      -5.814  14.713  55.949  0.00  0.00    -0.086 C 
BRANCH  48  49
ATOM     49  NZ  LYS A   6      -4.707  15.388  56.686  0.00  0.00    +0.380 N 
ATOM     50  HZ1 LYS A   6      -4.928  15.404  57.702  0.00  0.00    -0.089 HD
ATOM     51  HZ2 LYS A   6      -3.821  14.867  56.531  0.00  0.00    -0.089 HD
ATOM     52  HZ3 LYS A   6      -4.603  16.362  56.337  0.00  0.00    -0.089 HD
ENDBRANCH  48  49
ENDBRANCH  47  48
ENDBRANCH  46  47
ENDBRANCH  45  46
ENDBRANCH  42  45
ENDBRANCH  39  42
ENDBRANCH  37  38
BRANCH  37  53
ATOM     53  CB  SER A   5      -8.689  14.169  47.510  0.00  0.00    +0.166 C 
BRANCH  53  54
ATOM     54  OG  SER A   5      -8.584  13.556  46.233  0.00  0.00    -0.380 OA
ATOM     55  H   SER A   5      -7.639  13.320  46.058  0.00  0.00    +0.211 HD
ENDBRANCH  53  54
ENDBRANCH  37  53
ENDBRANCH  34  37
ENDBRANCH  32  33
BRANCH  32  56
ATOM     56  CB  ILE A   4      -3.820  15.396  45.385  0.00  0.00    +0.027 C 
ATOM     57  CG2 ILE A   4      -4.159  16.637  44.563  0.00  0.00    +0.002 C 
BRANCH  56  58
ATOM     58  CG1 ILE A   4      -2.360  14.997  45.135  0.00  0.00    +0.002 C 
ATOM     59  CD1 ILE A   4      -1.334  16.014  45.527  0.00  0.00    +0.000 C 
ENDBRANCH  56  58
ENDBRANCH  32  56
ENDBRANCH   3  32
TORSDOF 29
REMARK  Name = ../refined-set-2016/3ccw/3ccw_pocket.pdb
REMARK  241 active torsions:
REMARK  status: ('A' for Active; 'I' for Inactive)
REMARK    1  A    between atoms: _1  and  _3
REMARK    2  A    between atoms: _3  and  _4
REMARK    3  A    between atoms: _3  and  _6
REMARK    4  A    between atoms: _6  and  _7
REMARK    5  A    between atoms: _10  and  _12
REMARK    6  A    between atoms: _12  and  _13
REMARK    7  A    between atoms: _12  and  _15
REMARK    8  A    between atoms: _15  and  _16
REMARK    9  A    between atoms: _16  and  _17
REMARK   10  A    between atoms: _20  and  _22
REMARK   11  A    between atoms: _22  and  _23
REMARK   12  A    between atoms: _25  and  _27
REMARK   13  A    between atoms: _27  and  _28
REMARK   14  A    between atoms: _27  and  _30
REMARK   15  A    between atoms: _32  and  _34
REMARK   16  A    between atoms: _34  and  _35
REMARK   17  A    between atoms: _34  and  _37
REMARK   18  A    between atoms: _37  and  _38
REMARK   19  A    between atoms: _41  and  _43
REMARK   20  A    between atoms: _43  and  _44
REMARK   21  A    between atoms: _43  and  _46
REMARK   22  A    between atoms: _49  and  _51
REMARK   23  A    between atoms: _51  and  _52
REMARK   24  A    between atoms: _55  and  _57
REMARK   25  A    between atoms: _57  and  _58
REMARK   26  A    between atoms: _57  and  _60
REMARK   27  A    between atoms: _60  and  _61
REMARK   28  A    between atoms: _63  and  _65
REMARK   29  A    between atoms: _65  and  _66
REMARK   30  A    between atoms: _65  and  _68
REMARK   31  A    between atoms: _68  and  _69
REMARK   32  A    between atoms: _72  and  _74
REMARK   33  A    between atoms: _74  and  _75
REMARK   34  A    between atoms: _74  and  _77
REMARK   35  A    between atoms: _77  and  _78
REMARK   36  A    between atoms: _83  and  _85
REMARK   37  A    between atoms: _85  and  _86
REMARK   38  A    between atoms: _85  and  _88
REMARK   39  A    between atoms: _88  and  _89
REMARK   40  A    between atoms: _89  and  _90
REMARK   41  A    between atoms: _90  and  _91
REMARK   42  A    between atoms: _100  and  _102
REMARK   43  A    between atoms: _102  and  _103
REMARK   44  A    between atoms: _105  and  _107
REMARK   45  A    between atoms: _107  and  _108
REMARK   46  A    between atoms: _107  and  _110
REMARK   47  A    between atoms: _113  and  _115
REMARK   48  A    between atoms: _115  and  _116
REMARK   49  A    between atoms: _115  and  _118
REMARK   50  A    between atoms: _118  and  _119
REMARK   51  A    between atoms: _122  and  _124
REMARK   52  A    between atoms: _124  and  _125
REMARK   53  A    between atoms: _124  and  _127
REMARK   54  A    between atoms: _127  and  _128
REMARK   55  A    between atoms: _128  and  _129
REMARK   56  A    between atoms: _129  and  _130
REMARK   57  A    between atoms: _130  and  _131
REMARK   58  A    between atoms: _135  and  _137
REMARK   59  A    between atoms: _137  and  _138
REMARK   60  A    between atoms: _137  and  _140
REMARK   61  A    between atoms: _140  and  _141
REMARK   62  A    between atoms: _146  and  _148
REMARK   63  A    between atoms: _148  and  _149
REMARK   64  A    between atoms: _148  and  _151
REMARK   65  A    between atoms: _151  and  _152
REMARK   66  A    between atoms: _157  and  _159
REMARK   67  A    between atoms: _159  and  _160
REMARK   68  A    between atoms: _163  and  _165
REMARK   69  A    between atoms: _165  and  _166
REMARK   70  A    between atoms: _165  and  _168
REMARK   71  A    between atoms: _168  and  _169
REMARK   72  A    between atoms: _174  and  _176
REMARK   73  A    between atoms: _176  and  _177
REMARK   74  A    between atoms: _180  and  _182
REMARK   75  A    between atoms: _182  and  _183
REMARK   76  A    between atoms: _186  and  _188
REMARK   77  A    between atoms: _188  and  _189
REMARK   78  A    between atoms: _188  and  _191
REMARK   79  A    between atoms: _191  and  _192
REMARK   80  A    between atoms: _197  and  _199
REMARK   81  A    between atoms: _199  and  _200
REMARK   82  A    between atoms: _199  and  _202
REMARK   83  A    between atoms: _202  and  _203
REMARK   84  A    between atoms: _206  and  _208
REMARK   85  A    between atoms: _208  and  _209
REMARK   86  A    between atoms: _211  and  _213
REMARK   87  A    between atoms: _213  and  _214
REMARK   88  A    between atoms: _213  and  _216
REMARK   89  A    between atoms: _216  and  _217
REMARK   90  A    between atoms: _217  and  _218
REMARK   91  A    between atoms: _221  and  _223
REMARK   92  A    between atoms: _223  and  _224
REMARK   93  A    between atoms: _223  and  _226
REMARK   94  A    between atoms: _226  and  _227
REMARK   95  A    between atoms: _230  and  _232
REMARK   96  A    between atoms: _232  and  _233
REMARK   97  A    between atoms: _232  and  _235
REMARK   98  A    between atoms: _235  and  _236
REMARK   99  A    between atoms: _238  and  _240
REMARK  100  A    between atoms: _240  and  _241
REMARK  101  A    between atoms: _240  and  _243
REMARK  102  A    between atoms: _243  and  _244
REMARK  103  A    between atoms: _247  and  _249
REMARK  104  A    between atoms: _249  and  _250
REMARK  105  A    between atoms: _249  and  _252
REMARK  106  A    between atoms: _252  and  _253
REMARK  107  A    between atoms: _253  and  _254
REMARK  108  A    between atoms: _256  and  _258
REMARK  109  A    between atoms: _258  and  _259
REMARK  110  A    between atoms: _262  and  _264
REMARK  111  A    between atoms: _264  and  _265
REMARK  112  A    between atoms: _268  and  _270
REMARK  113  A    between atoms: _270  and  _271
REMARK  114  A    between atoms: _270  and  _273
REMARK  115  A    between atoms: _273  and  _274
REMARK  116  A    between atoms: _277  and  _279
REMARK  117  A    between atoms: _279  and  _280
REMARK  118  A    between atoms: _279  and  _282
REMARK  119  A    between atoms: _282  and  _283
REMARK  120  A    between atoms: _288  and  _290
REMARK  121  A    between atoms: _290  and  _291
REMARK  122  A    between atoms: _290  and  _293
REMARK  123  A    between atoms: _293  and  _294
REMARK  124  A    between atoms: _294  and  _295
REMARK  125  A    between atoms: _298  and  _300
REMARK  126  A    between atoms: _300  and  _301
REMARK  127  A    between atoms: _300  and  _303
REMARK  128  A    between atoms: _303  and  _304
REMARK  129  A    between atoms: _307  and  _309
REMARK  130  A    between atoms: _309  and  _310
REMARK  131  A    between atoms: _309  and  _312
REMARK  132  A    between atoms: _312  and  _313
REMARK  133  A    between atoms: _313  and  _314
REMARK  134  A    between atoms: _314  and  _315
REMARK  135  A    between atoms: _324  and  _326
REMARK  136  A    between atoms: _326  and  _327
REMARK  137  A    between atoms: _329  and  _331
REMARK  138  A    between atoms: _331  and  _332
REMARK  139  A    between atoms: _331  and  _334
REMARK  140  A    between atoms: _334  and  _335
REMARK  141  A    between atoms: _335  and  _336
REMARK  142  A    between atoms: _338  and  _340
REMARK  143  A    between atoms: _340  and  _341
REMARK  144  A    between atoms: _340  and  _343
REMARK  145  A    between atoms: _343  and  _344
REMARK  146  A    between atoms: _344  and  _345
REMARK  147  A    between atoms: _347  and  _349
REMARK  148  A    between atoms: _349  and  _350
REMARK  149  A    between atoms: _349  and  _352
REMARK  150  A    between atoms: _352  and  _353
REMARK  151  A    between atoms: _358  and  _360
REMARK  152  A    between atoms: _360  and  _361
REMARK  153  A    between atoms: _360  and  _363
REMARK  154  A    between atoms: _363  and  _364
REMARK  155  A    between atoms: _364  and  _365
REMARK  156  A    between atoms: _367  and  _369
REMARK  157  A    between atoms: _369  and  _370
REMARK  158  A    between atoms: _369  and  _372
REMARK  159  A    between atoms: _372  and  _373
REMARK  160  A    between atoms: _376  and  _378
REMARK  161  A    between atoms: _378  and  _379
REMARK  162  A    between atoms: _378  and  _381
REMARK  163  A    between atoms: _381  and  _382
REMARK  164  A    between atoms: _384  and  _386
REMARK  165  A    between atoms: _386  and  _387
REMARK  166  A    between atoms: _386  and  _389
REMARK  167  A    between atoms: _389  and  _390
REMARK  168  A    between atoms: _390  and  _391
REMARK  169  A    between atoms: _391  and  _392
REMARK  170  A    between atoms: _392  and  _393
REMARK  171  A    between atoms: _397  and  _399
REMARK  172  A    between atoms: _399  and  _400
REMARK  173  A    between atoms: _399  and  _402
REMARK  174  A    between atoms: _402  and  _403
REMARK  175  A    between atoms: _406  and  _408
REMARK  176  A    between atoms: _408  and  _409
REMARK  177  A    between atoms: _408  and  _411
REMARK  178  A    between atoms: _411  and  _412
REMARK  179  A    between atoms: _412  and  _413
REMARK  180  A    between atoms: _416  and  _418
REMARK  181  A    between atoms: _418  and  _419
REMARK  182  A    between atoms: _422  and  _424
REMARK  183  A    between atoms: _424  and  _425
REMARK  184  A    between atoms: _424  and  _427
REMARK  185  A    between atoms: _430  and  _432
REMARK  186  A    between atoms: _432  and  _433
REMARK  187  A    between atoms: _432  and  _435
REMARK  188  A    between atoms: _435  and  _436
REMARK  189  A    between atoms: _438  and  _440
REMARK  190  A    between atoms: _440  and  _441
REMARK  191  A    between atoms: _443  and  _445
REMARK  192  A    between atoms: _445  and  _446
REMARK  193  A    between atoms: _445  and  _448
REMARK  194  A    between atoms: _448  and  _449
REMARK  195  A    between atoms: _454  and  _456
REMARK  196  A    between atoms: _456  and  _457
REMARK  197  A    between atoms: _456  and  _459
REMARK  198  A    between atoms: _459  and  _460
REMARK  199  A    between atoms: _465  and  _466
REMARK  200  A    between atoms: _468  and  _470
REMARK  201  A    between atoms: _470  and  _471
REMARK  202  A    between atoms: _470  and  _473
REMARK  203  A    between atoms: _475  and  _477
REMARK  204  A    between atoms: _477  and  _478
REMARK  205  A    between atoms: _477  and  _480
REMARK  206  A    between atoms: _480  and  _481
REMARK  207  A    between atoms: _484  and  _486
REMARK  208  A    between atoms: _486  and  _487
REMARK  209  A    between atoms: _486  and  _489
REMARK  210  A    between atoms: _489  and  _490
REMARK  211  A    between atoms: _493  and  _495
REMARK  212  A    between atoms: _495  and  _496
REMARK  213  A    between atoms: _495  and  _498
REMARK  214  A    between atoms: _498  and  _499
REMARK  215  A    between atoms: _499  and  _500
REMARK  216  A    between atoms: _500  and  _501
REMARK  217  A    between atoms: _501  and  _502
REMARK  218  A    between atoms: _506  and  _508
REMARK  219  A    between atoms: _508  and  _509
REMARK  220  A    between atoms: _508  and  _511
REMARK  221  A    between atoms: _511  and  _512
REMARK  222  A    between atoms: _512  and  _513
REMARK  223  A    between atoms: _513  and  _514
REMARK  224  A    between atoms: _514  and  _515
REMARK  225  A    between atoms: _519  and  _521
REMARK  226  A    between atoms: _521  and  _522
REMARK  227  A    between atoms: _521  and  _524
REMARK  228  A    between atoms: _524  and  _525
REMARK  229  A    between atoms: _525  and  _526
REMARK  230  A    between atoms: _526  and  _527
REMARK  231  A    between atoms: _536  and  _538
REMARK  232  A    between atoms: _538  and  _539
REMARK  233  A    between atoms: _538  and  _541
REMARK  234  A    between atoms: _541  and  _542
REMARK  235  A    between atoms: _545  and  _547
REMARK  236  A    between atoms: _547  and  _548
REMARK  237  A    between atoms: _551  and  _553
REMARK  238  A    between atoms: _553  and  _554
REMARK  239  A    between atoms: _553  and  _556
REMARK  240  A    between atoms: _556  and  _557
REMARK  241  A    between atoms: _557  and  _558
REMARK                            x       y       z     vdW  Elec       q    Type
REMARK                         _______ _______ _______ _____ _____    ______ ____
ROOT
ATOM      1  C   THR A   1      -8.770  20.881  48.631  0.00  0.00    +0.241 C 
ATOM      2  N   GLU A   2      -9.343  20.030  49.480  0.00  0.00    -0.298 N 
ATOM      3  H   GLU A   2      -8.983  19.055  49.524  0.00  0.00    +0.150 HD
ATOM      4  O   THR A   1      -9.103  22.051  48.520  0.00  0.00    -0.274 OA
ENDROOT
BRANCH   1   5
ATOM      5  CA  THR A   1      -7.639  20.330  47.778  0.00  0.00    +0.172 C 
BRANCH   5   6
ATOM      6  N   THR A   1      -6.754  19.527  48.615  0.00  0.00    -0.236 NA
ATOM      7  H   THR A   1      -6.754  18.493  48.502  0.00  0.00    +0.142 HD
ENDBRANCH   5   6
BRANCH   5   8
ATOM      8  CB  THR A   1      -8.201  19.492  46.595  0.00  0.00    +0.135 C 
ATOM      9  CG2 THR A   1      -9.216  20.289  45.782  0.00  0.00    +0.034 C 
BRANCH   8  10
ATOM     10  OG1 THR A   1      -7.156  19.223  45.654  0.00  0.00    -0.383 OA
ATOM     11  HG1 THR A   1      -6.433  18.716  46.102  0.00  0.00    +0.210 HD
ENDBRANCH   8  10
ENDBRANCH   5   8
ENDBRANCH   1   5
BRANCH   2  12
ATOM     12  CA  GLU A   2     -10.459  20.404  50.357  0.00  0.00    +0.137 C 
BRANCH  12  13
ATOM     13  C   GLU A   2     -10.075  21.529  51.313  0.00  0.00    +0.227 C 
ATOM     14  O   GLU A   2     -10.853  22.452  51.533  0.00  0.00    -0.286 OA
ENDBRANCH  12  13
BRANCH  12  15
ATOM     15  CB  GLU A   2     -10.915  19.206  51.193  0.00  0.00    +0.039 C 
BRANCH  15  16
ATOM     16  CG  GLU A   2     -11.955  18.317  50.532  0.00  0.00    +0.116 C 
BRANCH  16  17
ATOM     17  CD  GLU A   2     -12.325  17.136  51.407  0.00  0.00    +0.365 C 
ATOM     18  OE2 GLU A   2     -12.778  17.363  52.552  0.00  0.00    -0.246 OA
ATOM     19  OE1 GLU A   2     -12.158  15.982  50.957  0.00  0.00    -0.246 OA
ENDBRANCH  16  17
ENDBRANCH  15  16
ENDBRANCH  12  15
ENDBRANCH   2  12
TORSDOF 9
REMARK  Name = ../refined-set-2016/3ccw/3ccw_pocket.pdb
REMARK  241 active torsions:
REMARK  status: ('A' for Active; 'I' for Inactive)
REMARK    1  A    between atoms: _1  and  _3
REMARK    2  A    between atoms: _3  and  _4
REMARK    3  A    between atoms: _3  and  _6
REMARK    4  A    between atoms: _6  and  _7
REMARK    5  A    between atoms: _10  and  _12
REMARK    6  A    between atoms: _12  and  _13
REMARK    7  A    between atoms: _12  and  _15
REMARK    8  A    between atoms: _15  and  _16
REMARK    9  A    between atoms: _16  and  _17
REMARK   10  A    between atoms: _20  and  _22
REMARK   11  A    between atoms: _22  and  _23
REMARK   12  A    between atoms: _25  and  _27
REMARK   13  A    between atoms: _27  and  _28
REMARK   14  A    between atoms: _27  and  _30
REMARK   15  A    between atoms: _32  and  _34
REMARK   16  A    between atoms: _34  and  _35
REMARK   17  A    between atoms: _34  and  _37
REMARK   18  A    between atoms: _37  and  _38
REMARK   19  A    between atoms: _41  and  _43
REMARK   20  A    between atoms: _43  and  _44
REMARK   21  A    between atoms: _43  and  _46
REMARK   22  A    between atoms: _49  and  _51
REMARK   23  A    between atoms: _51  and  _52
REMARK   24  A    between atoms: _55  and  _57
REMARK   25  A    between atoms: _57  and  _58
REMARK   26  A    between atoms: _57  and  _60
REMARK   27  A    between atoms: _60  and  _61
REMARK   28  A    between atoms: _63  and  _65
REMARK   29  A    between atoms: _65  and  _66
REMARK   30  A    between atoms: _65  and  _68
REMARK   31  A    between atoms: _68  and  _69
REMARK   32  A    between atoms: _72  and  _74
REMARK   33  A    between atoms: _74  and  _75
REMARK   34  A    between atoms: _74  and  _77
REMARK   35  A    between atoms: _77  and  _78
REMARK   36  A    between atoms: _83  and  _85
REMARK   37  A    between atoms: _85  and  _86
REMARK   38  A    between atoms: _85  and  _88
REMARK   39  A    between atoms: _88  and  _89
REMARK   40  A    between atoms: _89  and  _90
REMARK   41  A    between atoms: _90  and  _91
REMARK   42  A    between atoms: _100  and  _102
REMARK   43  A    between atoms: _102  and  _103
REMARK   44  A    between atoms: _105  and  _107
REMARK   45  A    between atoms: _107  and  _108
REMARK   46  A    between atoms: _107  and  _110
REMARK   47  A    between atoms: _113  and  _115
REMARK   48  A    between atoms: _115  and  _116
REMARK   49  A    between atoms: _115  and  _118
REMARK   50  A    between atoms: _118  and  _119
REMARK   51  A    between atoms: _122  and  _124
REMARK   52  A    between atoms: _124  and  _125
REMARK   53  A    between atoms: _124  and  _127
REMARK   54  A    between atoms: _127  and  _128
REMARK   55  A    between atoms: _128  and  _129
REMARK   56  A    between atoms: _129  and  _130
REMARK   57  A    between atoms: _130  and  _131
REMARK   58  A    between atoms: _135  and  _137
REMARK   59  A    between atoms: _137  and  _138
REMARK   60  A    between atoms: _137  and  _140
REMARK   61  A    between atoms: _140  and  _141
REMARK   62  A    between atoms: _146  and  _148
REMARK   63  A    between atoms: _148  and  _149
REMARK   64  A    between atoms: _148  and  _151
REMARK   65  A    between atoms: _151  and  _152
REMARK   66  A    between atoms: _157  and  _159
REMARK   67  A    between atoms: _159  and  _160
REMARK   68  A    between atoms: _163  and  _165
REMARK   69  A    between atoms: _165  and  _166
REMARK   70  A    between atoms: _165  and  _168
REMARK   71  A    between atoms: _168  and  _169
REMARK   72  A    between atoms: _174  and  _176
REMARK   73  A    between atoms: _176  and  _177
REMARK   74  A    between atoms: _180  and  _182
REMARK   75  A    between atoms: _182  and  _183
REMARK   76  A    between atoms: _186  and  _188
REMARK   77  A    between atoms: _188  and  _189
REMARK   78  A    between atoms: _188  and  _191
REMARK   79  A    between atoms: _191  and  _192
REMARK   80  A    between atoms: _197  and  _199
REMARK   81  A    between atoms: _199  and  _200
REMARK   82  A    between atoms: _199  and  _202
REMARK   83  A    between atoms: _202  and  _203
REMARK   84  A    between atoms: _206  and  _208
REMARK   85  A    between atoms: _208  and  _209
REMARK   86  A    between atoms: _211  and  _213
REMARK   87  A    between atoms: _213  and  _214
REMARK   88  A    between atoms: _213  and  _216
REMARK   89  A    between atoms: _216  and  _217
REMARK   90  A    between atoms: _217  and  _218
REMARK   91  A    between atoms: _221  and  _223
REMARK   92  A    between atoms: _223  and  _224
REMARK   93  A    between atoms: _223  and  _226
REMARK   94  A    between atoms: _226  and  _227
REMARK   95  A    between atoms: _230  and  _232
REMARK   96  A    between atoms: _232  and  _233
REMARK   97  A    between atoms: _232  and  _235
REMARK   98  A    between atoms: _235  and  _236
REMARK   99  A    between atoms: _238  and  _240
REMARK  100  A    between atoms: _240  and  _241
REMARK  101  A    between atoms: _240  and  _243
REMARK  102  A    between atoms: _243  and  _244
REMARK  103  A    between atoms: _247  and  _249
REMARK  104  A    between atoms: _249  and  _250
REMARK  105  A    between atoms: _249  and  _252
REMARK  106  A    between atoms: _252  and  _253
REMARK  107  A    between atoms: _253  and  _254
REMARK  108  A    between atoms: _256  and  _258
REMARK  109  A    between atoms: _258  and  _259
REMARK  110  A    between atoms: _262  and  _264
REMARK  111  A    between atoms: _264  and  _265
REMARK  112  A    between atoms: _268  and  _270
REMARK  113  A    between atoms: _270  and  _271
REMARK  114  A    between atoms: _270  and  _273
REMARK  115  A    between atoms: _273  and  _274
REMARK  116  A    between atoms: _277  and  _279
REMARK  117  A    between atoms: _279  and  _280
REMARK  118  A    between atoms: _279  and  _282
REMARK  119  A    between atoms: _282  and  _283
REMARK  120  A    between atoms: _288  and  _290
REMARK  121  A    between atoms: _290  and  _291
REMARK  122  A    between atoms: _290  and  _293
REMARK  123  A    between atoms: _293  and  _294
REMARK  124  A    between atoms: _294  and  _295
REMARK  125  A    between atoms: _298  and  _300
REMARK  126  A    between atoms: _300  and  _301
REMARK  127  A    between atoms: _300  and  _303
REMARK  128  A    between atoms: _303  and  _304
REMARK  129  A    between atoms: _307  and  _309
REMARK  130  A    between atoms: _309  and  _310
REMARK  131  A    between atoms: _309  and  _312
REMARK  132  A    between atoms: _312  and  _313
REMARK  133  A    between atoms: _313  and  _314
REMARK  134  A    between atoms: _314  and  _315
REMARK  135  A    between atoms: _324  and  _326
REMARK  136  A    between atoms: _326  and  _327
REMARK  137  A    between atoms: _329  and  _331
REMARK  138  A    between atoms: _331  and  _332
REMARK  139  A    between atoms: _331  and  _334
REMARK  140  A    between atoms: _334  and  _335
REMARK  141  A    between atoms: _335  and  _336
REMARK  142  A    between atoms: _338  and  _340
REMARK  143  A    between atoms: _340  and  _341
REMARK  144  A    between atoms: _340  and  _343
REMARK  145  A    between atoms: _343  and  _344
REMARK  146  A    between atoms: _344  and  _345
REMARK  147  A    between atoms: _347  and  _349
REMARK  148  A    between atoms: _349  and  _350
REMARK  149  A    between atoms: _349  and  _352
REMARK  150  A    between atoms: _352  and  _353
REMARK  151  A    between atoms: _358  and  _360
REMARK  152  A    between atoms: _360  and  _361
REMARK  153  A    between atoms: _360  and  _363
REMARK  154  A    between atoms: _363  and  _364
REMARK  155  A    between atoms: _364  and  _365
REMARK  156  A    between atoms: _367  and  _369
REMARK  157  A    between atoms: _369  and  _370
REMARK  158  A    between atoms: _369  and  _372
REMARK  159  A    between atoms: _372  and  _373
REMARK  160  A    between atoms: _376  and  _378
REMARK  161  A    between atoms: _378  and  _379
REMARK  162  A    between atoms: _378  and  _381
REMARK  163  A    between atoms: _381  and  _382
REMARK  164  A    between atoms: _384  and  _386
REMARK  165  A    between atoms: _386  and  _387
REMARK  166  A    between atoms: _386  and  _389
REMARK  167  A    between atoms: _389  and  _390
REMARK  168  A    between atoms: _390  and  _391
REMARK  169  A    between atoms: _391  and  _392
REMARK  170  A    between atoms: _392  and  _393
REMARK  171  A    between atoms: _397  and  _399
REMARK  172  A    between atoms: _399  and  _400
REMARK  173  A    between atoms: _399  and  _402
REMARK  174  A    between atoms: _402  and  _403
REMARK  175  A    between atoms: _406  and  _408
REMARK  176  A    between atoms: _408  and  _409
REMARK  177  A    between atoms: _408  and  _411
REMARK  178  A    between atoms: _411  and  _412
REMARK  179  A    between atoms: _412  and  _413
REMARK  180  A    between atoms: _416  and  _418
REMARK  181  A    between atoms: _418  and  _419
REMARK  182  A    between atoms: _422  and  _424
REMARK  183  A    between atoms: _424  and  _425
REMARK  184  A    between atoms: _424  and  _427
REMARK  185  A    between atoms: _430  and  _432
REMARK  186  A    between atoms: _432  and  _433
REMARK  187  A    between atoms: _432  and  _435
REMARK  188  A    between atoms: _435  and  _436
REMARK  189  A    between atoms: _438  and  _440
REMARK  190  A    between atoms: _440  and  _441
REMARK  191  A    between atoms: _443  and  _445
REMARK  192  A    between atoms: _445  and  _446
REMARK  193  A    between atoms: _445  and  _448
REMARK  194  A    between atoms: _448  and  _449
REMARK  195  A    between atoms: _454  and  _456
REMARK  196  A    between atoms: _456  and  _457
REMARK  197  A    between atoms: _456  and  _459
REMARK  198  A    between atoms: _459  and  _460
REMARK  199  A    between atoms: _465  and  _466
REMARK  200  A    between atoms: _468  and  _470
REMARK  201  A    between atoms: _470  and  _471
REMARK  202  A    between atoms: _470  and  _473
REMARK  203  A    between atoms: _475  and  _477
REMARK  204  A    between atoms: _477  and  _478
REMARK  205  A    between atoms: _477  and  _480
REMARK  206  A    between atoms: _480  and  _481
REMARK  207  A    between atoms: _484  and  _486
REMARK  208  A    between atoms: _486  and  _487
REMARK  209  A    between atoms: _486  and  _489
REMARK  210  A    between atoms: _489  and  _490
REMARK  211  A    between atoms: _493  and  _495
REMARK  212  A    between atoms: _495  and  _496
REMARK  213  A    between atoms: _495  and  _498
REMARK  214  A    between atoms: _498  and  _499
REMARK  215  A    between atoms: _499  and  _500
REMARK  216  A    between atoms: _500  and  _501
REMARK  217  A    between atoms: _501  and  _502
REMARK  218  A    between atoms: _506  and  _508
REMARK  219  A    between atoms: _508  and  _509
REMARK  220  A    between atoms: _508  and  _511
REMARK  221  A    between atoms: _511  and  _512
REMARK  222  A    between atoms: _512  and  _513
REMARK  223  A    between atoms: _513  and  _514
REMARK  224  A    between atoms: _514  and  _515
REMARK  225  A    between atoms: _519  and  _521
REMARK  226  A    between atoms: _521  and  _522
REMARK  227  A    between atoms: _521  and  _524
REMARK  228  A    between atoms: _524  and  _525
REMARK  229  A    between atoms: _525  and  _526
REMARK  230  A    between atoms: _526  and  _527
REMARK  231  A    between atoms: _536  and  _538
REMARK  232  A    between atoms: _538  and  _539
REMARK  233  A    between atoms: _538  and  _541
REMARK  234  A    between atoms: _541  and  _542
REMARK  235  A    between atoms: _545  and  _547
REMARK  236  A    between atoms: _547  and  _548
REMARK  237  A    between atoms: _551  and  _553
REMARK  238  A    between atoms: _553  and  _554
REMARK  239  A    between atoms: _553  and  _556
REMARK  240  A    between atoms: _556  and  _557
REMARK  241  A    between atoms: _557  and  _558
REMARK                            x       y       z     vdW  Elec       q    Type
REMARK                         _______ _______ _______ _____ _____    ______ ____
ROOT
ATOM      1  C   TYR A   6      -9.293  18.004  35.732  0.00  0.00    +0.241 C 
ATOM      2  N   CYS A   7      -9.292  16.894  36.464  0.00  0.00    -0.296 N 
ATOM      3  H   CYS A   7     -10.195  16.413  36.651  0.00  0.00    +0.150 HD
ATOM      4  O   TYR A   6      -8.264  18.567  35.380  0.00  0.00    -0.273 OA
ENDROOT
BRANCH   1   5
ATOM      5  CA  TYR A   6     -10.657  18.535  35.288  0.00  0.00    +0.153 C 
BRANCH   5   7
ATOM      6  C   ASN A   5     -12.303  16.757  35.178  0.00  0.00    +0.241 C 
ATOM      7  N   TYR A   6     -11.724  17.734  35.866  0.00  0.00    -0.297 N 
ATOM      8  H   TYR A   6     -12.040  17.930  36.837  0.00  0.00    +0.150 HD
ATOM      9  O   ASN A   5     -11.945  16.451  34.042  0.00  0.00    -0.273 OA
BRANCH   6  10
ATOM     10  CA  ASN A   5     -13.435  15.988  35.860  0.00  0.00    +0.158 C 
BRANCH  10  12
ATOM     11  C   GLY A   4     -14.654  17.801  37.003  0.00  0.00    +0.243 C 
ATOM     12  N   ASN A   5     -14.013  16.633  37.047  0.00  0.00    -0.297 N 
ATOM     13  H   ASN A   5     -13.917  16.155  37.966  0.00  0.00    +0.150 HD
ATOM     14  O   GLY A   4     -14.772  18.463  35.978  0.00  0.00    -0.273 OA
BRANCH  11  15
ATOM     15  CA  GLY A   4     -15.227  18.317  38.306  0.00  0.00    +0.176 C 
BRANCH  15  18
ATOM     16  C   SER A   3     -14.729  16.932  40.246  0.00  0.00    +0.243 C 
ATOM     17  O   SER A   3     -15.829  16.378  40.224  0.00  0.00    -0.273 OA
ATOM     18  N   GLY A   4     -14.405  17.932  39.437  0.00  0.00    -0.295 N 
ATOM     19  H   GLY A   4     -13.528  18.460  39.621  0.00  0.00    +0.150 HD
BRANCH  16  20
ATOM     20  CA  SER A   3     -13.653  16.497  41.244  0.00  0.00    +0.178 C 
BRANCH  20  23
ATOM     21  C   VAL A   2     -13.388  17.560  43.455  0.00  0.00    +0.241 C 
ATOM     22  O   VAL A   2     -12.207  17.857  43.281  0.00  0.00    -0.273 OA
ATOM     23  N   SER A   3     -14.086  16.786  42.619  0.00  0.00    -0.295 N 
ATOM     24  H   SER A   3     -14.977  16.369  42.957  0.00  0.00    +0.150 HD
BRANCH  21  25
ATOM     25  CA  VAL A   2     -14.148  18.097  44.669  0.00  0.00    +0.148 C 
BRANCH  25  27
ATOM     26  C   ALA A   1     -16.125  18.904  43.472  0.00  0.00    +0.238 C 
ATOM     27  N   VAL A   2     -15.588  18.107  44.395  0.00  0.00    -0.297 N 
ATOM     28  H   VAL A   2     -16.209  17.473  44.937  0.00  0.00    +0.150 HD
ATOM     29  O   ALA A   1     -15.458  19.666  42.783  0.00  0.00    -0.274 OA
BRANCH  26  30
ATOM     30  CA  ALA A   1     -17.635  18.836  43.303  0.00  0.00    +0.145 C 
ATOM     31  CB  ALA A   1     -17.999  18.066  42.042  0.00  0.00    +0.028 C 
BRANCH  30  32
ATOM     32  N   ALA A   1     -18.212  20.180  43.258  0.00  0.00    -0.238 NA
ATOM     33  H   ALA A   1     -17.617  20.977  42.953  0.00  0.00    +0.142 HD
ENDBRANCH  30  32
ENDBRANCH  26  30
ENDBRANCH  25  27
BRANCH  25  34
ATOM     34  CB  VAL A   2     -13.792  17.318  45.985  0.00  0.00    +0.027 C 
ATOM     35  CG2 VAL A   2     -12.335  17.556  46.386  0.00  0.00    +0.002 C 
ATOM     36  CG1 VAL A   2     -14.072  15.830  45.866  0.00  0.00    +0.002 C 
ENDBRANCH  25  34
ENDBRANCH  21  25
ENDBRANCH  20  23
BRANCH  20  37
ATOM     37  CB  SER A   3     -13.380  15.001  41.053  0.00  0.00    +0.166 C 
BRANCH  37  38
ATOM     38  OG  SER A   3     -13.078  14.701  39.689  0.00  0.00    -0.380 OA
ATOM     39  H   SER A   3     -12.907  13.730  39.596  0.00  0.00    +0.211 HD
ENDBRANCH  37  38
ENDBRANCH  20  37
ENDBRANCH  16  20
ENDBRANCH  15  18
ENDBRANCH  11  15
ENDBRANCH  10  12
BRANCH  10  40
ATOM     40  CB  ASN A   5     -14.538  15.645  34.839  0.00  0.00    +0.114 C 
BRANCH  40  41
ATOM     41  CG  ASN A   5     -15.202  14.331  35.125  0.00  0.00    +0.222 C 
ATOM     42  OD1 ASN A   5     -14.940  13.690  36.154  0.00  0.00    -0.275 OA
ATOM     43  ND2 ASN A   5     -16.071  13.902  34.213  0.00  0.00    -0.329 N 
ATOM     44 HD21 ASN A   5     -16.562  12.995  34.348  0.00  0.00    +0.145 HD
ATOM     45 HD22 ASN A   5     -16.259  14.474  33.365  0.00  0.00    +0.145 HD
ENDBRANCH  40  41
ENDBRANCH  10  40
ENDBRANCH   6  10
ENDBRANCH   5   7
BRANCH   5  46
ATOM     46  CB  TYR A   6     -10.831  20.008  35.688  0.00  0.00    +0.055 C 
BRANCH  46  47
ATOM     47  CG  TYR A   6     -10.106  21.009  34.814  0.00  0.00    -0.020 A 
ATOM     48  CD2 TYR A   6      -9.223  21.929  35.365  0.00  0.00    -0.001 A 
ATOM     49  CE2 TYR A   6      -8.561  22.865  34.565  0.00  0.00    +0.036 A 
ATOM     50  CZ  TYR A   6      -8.785  22.880  33.204  0.00  0.00    +0.134 A 
ATOM     51  CE1 TYR A   6      -9.655  21.985  32.637  0.00  0.00    +0.036 A 
ATOM     52  CD1 TYR A   6     -10.319  21.055  33.442  0.00  0.00    -0.001 A 
BRANCH  50  53
ATOM     53  OH  TYR A   6      -8.122  23.797  32.412  0.00  0.00    -0.506 OA
ATOM     54  HH  TYR A   6      -7.145  23.659  32.496  0.00  0.00    +0.292 HD
ENDBRANCH  50  53
ENDBRANCH  46  47
ENDBRANCH   5  46
ENDBRANCH   1   5
BRANCH   2  55
ATOM     55  CA  CYS A   7      -8.058  16.326  37.016  0.00  0.00    +0.160 C 
BRANCH  55  56
ATOM     56  C   CYS A   7      -7.045  15.912  35.931  0.00  0.00    +0.242 C 
ATOM     57  O   CYS A   7      -5.962  16.488  35.885  0.00  0.00    -0.273 OA
ATOM     58  N   THR A   8      -7.357  14.968  35.035  0.00  0.00    -0.295 N 
ATOM     59  H   THR A   8      -6.643  14.756  34.310  0.00  0.00    +0.150 HD
BRANCH  58  60
ATOM     60  CA  THR A   8      -8.598  14.209  34.976  0.00  0.00    +0.176 C 
BRANCH  60  61
ATOM     61  C   THR A   8      -8.251  12.787  35.356  0.00  0.00    +0.243 C 
ATOM     62  N   ASP A   9      -9.118  12.161  36.138  0.00  0.00    -0.296 N 
ATOM     63  H   ASP A   9     -10.008  12.639  36.384  0.00  0.00    +0.150 HD
ATOM     64  O   THR A   8      -7.223  12.260  34.938  0.00  0.00    -0.273 OA
BRANCH  62  65
ATOM     65  CA  ASP A   9      -8.869  10.832  36.663  0.00  0.00    +0.160 C 
BRANCH  65  66
ATOM     66  C   ASP A   9      -9.733   9.778  35.973  0.00  0.00    +0.241 C 
ATOM     67  O   ASP A   9     -10.956   9.876  35.970  0.00  0.00    -0.273 OA
ATOM     68  N   LYS A  10      -9.074   8.789  35.373  0.00  0.00    -0.297 N 
ATOM     69  H   LYS A  10      -8.039   8.864  35.301  0.00  0.00    +0.150 HD
BRANCH  68  70
ATOM     70  CA  LYS A  10      -9.722   7.600  34.808  0.00  0.00    +0.149 C 
BRANCH  70  71
ATOM     71  C   LYS A  10     -10.729   7.848  33.666  0.00  0.00    +0.241 C 
ATOM     72  O   LYS A  10     -11.655   7.058  33.464  0.00  0.00    -0.273 OA
ATOM     73  N   LYS A  11     -10.537   8.946  32.938  0.00  0.00    -0.298 N 
ATOM     74  H   LYS A  11      -9.870   9.661  33.291  0.00  0.00    +0.150 HD
BRANCH  73  75
ATOM     75  CA  LYS A  11     -11.217   9.199  31.665  0.00  0.00    +0.137 C 
BRANCH  75  76
ATOM     76  C   LYS A  11     -10.199   9.791  30.696  0.00  0.00    +0.227 C 
ATOM     77  O   LYS A  11      -9.286  10.488  31.124  0.00  0.00    -0.286 OA
ENDBRANCH  75  76
BRANCH  75  78
ATOM     78  CB  LYS A  11     -12.342  10.219  31.816  0.00  0.00    +0.028 C 
BRANCH  78  79
ATOM     79  CG  LYS A  11     -13.616   9.698  32.442  0.00  0.00    -0.000 C 
BRANCH  79  80
ATOM     80  CD  LYS A  11     -13.585   9.795  33.972  0.00  0.00    -0.024 C 
BRANCH  80  81
ATOM     81  CE  LYS A  11     -13.536  11.228  34.465  0.00  0.00    -0.086 C 
BRANCH  81  82
ATOM     82  NZ  LYS A  11     -13.900  11.277  35.896  0.00  0.00    +0.380 N 
ATOM     83  HZ1 LYS A  11     -13.229  10.701  36.443  0.00  0.00    -0.089 HD
ATOM     84  HZ2 LYS A  11     -13.865  12.262  36.228  0.00  0.00    -0.089 HD
ATOM     85  HZ3 LYS A  11     -14.862  10.902  36.021  0.00  0.00    -0.089 HD
ENDBRANCH  81  82
ENDBRANCH  80  81
ENDBRANCH  79  80
ENDBRANCH  78  79
ENDBRANCH  75  78
ENDBRANCH  73  75
ENDBRANCH  70  71
BRANCH  70  86
ATOM     86  CB  LYS A  10     -10.361   6.781  35.932  0.00  0.00    +0.029 C 
BRANCH  86  87
ATOM     87  CG  LYS A  10      -9.361   6.266  36.957  0.00  0.00    +0.000 C 
BRANCH  87  88
ATOM     88  CD  LYS A  10     -10.053   5.766  38.215  0.00  0.00    -0.024 C 
BRANCH  88  89
ATOM     89  CE  LYS A  10      -9.046   5.206  39.218  0.00  0.00    -0.086 C 
BRANCH  89  90
ATOM     90  NZ  LYS A  10      -9.681   4.775  40.483  0.00  0.00    +0.380 N 
ATOM     91  HZ1 LYS A  10      -8.953   4.404  41.126  0.00  0.00    -0.089 HD
ATOM     92  HZ2 LYS A  10     -10.155   5.588  40.926  0.00  0.00    -0.089 HD
ATOM     93  HZ3 LYS A  10     -10.380   4.031  40.283  0.00  0.00    -0.089 HD
ENDBRANCH  89  90
ENDBRANCH  88  89
ENDBRANCH  87  88
ENDBRANCH  86  87
ENDBRANCH  70  86
ENDBRANCH  68  70
ENDBRANCH  65  66
BRANCH  65  94
ATOM     94  CB  ASP A   9      -9.133  10.823  38.170  0.00  0.00    +0.143 C 
BRANCH  94  95
ATOM     95  CG  ASP A   9      -8.629   9.568  38.840  0.00  0.00    +0.367 C 
ATOM     96  OD2 ASP A   9      -9.298   8.971  39.709  0.00  0.00    -0.246 OA
ATOM     97  OD1 ASP A   9      -7.513   9.109  38.491  0.00  0.00    -0.246 OA
ENDBRANCH  94  95
ENDBRANCH  65  94
ENDBRANCH  62  65
ENDBRANCH  60  61
BRANCH  60  98
ATOM     98  CB  THR A   8      -9.188  14.250  33.549  0.00  0.00    +0.137 C 
ATOM     99  CG2 THR A   8     -10.490  13.461  33.465  0.00  0.00    +0.034 C 
BRANCH  98 100
ATOM    100  OG1 THR A   8      -9.567  15.593  33.216  0.00  0.00    -0.382 OA
ATOM    101  HG1 THR A   8     -10.247  15.912  33.861  0.00  0.00    +0.210 HD
ENDBRANCH  98 100
ENDBRANCH  60  98
ENDBRANCH  58  60
ENDBRANCH  55  56
BRANCH  55 102
ATOM    102  CB  CYS A   7      -8.349  15.182  38.005  0.00  0.00    +0.098 C 
ATOM    103  SG  CYS A   7      -9.896  15.341  38.954  0.00  0.00    -0.080 S 
ENDBRANCH  55 102
ENDBRANCH   2  55
TORSDOF 45
REMARK  Name = ../refined-set-2016/3ccw/3ccw_pocket.pdb
REMARK  241 active torsions:
REMARK  status: ('A' for Active; 'I' for Inactive)
REMARK    1  A    between atoms: _1  and  _3
REMARK    2  A    between atoms: _3  and  _4
REMARK    3  A    between atoms: _3  and  _6
REMARK    4  A    between atoms: _6  and  _7
REMARK    5  A    between atoms: _10  and  _12
REMARK    6  A    between atoms: _12  and  _13
REMARK    7  A    between atoms: _12  and  _15
REMARK    8  A    between atoms: _15  and  _16
REMARK    9  A    between atoms: _16  and  _17
REMARK   10  A    between atoms: _20  and  _22
REMARK   11  A    between atoms: _22  and  _23
REMARK   12  A    between atoms: _25  and  _27
REMARK   13  A    between atoms: _27  and  _28
REMARK   14  A    between atoms: _27  and  _30
REMARK   15  A    between atoms: _32  and  _34
REMARK   16  A    between atoms: _34  and  _35
REMARK   17  A    between atoms: _34  and  _37
REMARK   18  A    between atoms: _37  and  _38
REMARK   19  A    between atoms: _41  and  _43
REMARK   20  A    between atoms: _43  and  _44
REMARK   21  A    between atoms: _43  and  _46
REMARK   22  A    between atoms: _49  and  _51
REMARK   23  A    between atoms: _51  and  _52
REMARK   24  A    between atoms: _55  and  _57
REMARK   25  A    between atoms: _57  and  _58
REMARK   26  A    between atoms: _57  and  _60
REMARK   27  A    between atoms: _60  and  _61
REMARK   28  A    between atoms: _63  and  _65
REMARK   29  A    between atoms: _65  and  _66
REMARK   30  A    between atoms: _65  and  _68
REMARK   31  A    between atoms: _68  and  _69
REMARK   32  A    between atoms: _72  and  _74
REMARK   33  A    between atoms: _74  and  _75
REMARK   34  A    between atoms: _74  and  _77
REMARK   35  A    between atoms: _77  and  _78
REMARK   36  A    between atoms: _83  and  _85
REMARK   37  A    between atoms: _85  and  _86
REMARK   38  A    between atoms: _85  and  _88
REMARK   39  A    between atoms: _88  and  _89
REMARK   40  A    between atoms: _89  and  _90
REMARK   41  A    between atoms: _90  and  _91
REMARK   42  A    between atoms: _100  and  _102
REMARK   43  A    between atoms: _102  and  _103
REMARK   44  A    between atoms: _105  and  _107
REMARK   45  A    between atoms: _107  and  _108
REMARK   46  A    between atoms: _107  and  _110
REMARK   47  A    between atoms: _113  and  _115
REMARK   48  A    between atoms: _115  and  _116
REMARK   49  A    between atoms: _115  and  _118
REMARK   50  A    between atoms: _118  and  _119
REMARK   51  A    between atoms: _122  and  _124
REMARK   52  A    between atoms: _124  and  _125
REMARK   53  A    between atoms: _124  and  _127
REMARK   54  A    between atoms: _127  and  _128
REMARK   55  A    between atoms: _128  and  _129
REMARK   56  A    between atoms: _129  and  _130
REMARK   57  A    between atoms: _130  and  _131
REMARK   58  A    between atoms: _135  and  _137
REMARK   59  A    between atoms: _137  and  _138
REMARK   60  A    between atoms: _137  and  _140
REMARK   61  A    between atoms: _140  and  _141
REMARK   62  A    between atoms: _146  and  _148
REMARK   63  A    between atoms: _148  and  _149
REMARK   64  A    between atoms: _148  and  _151
REMARK   65  A    between atoms: _151  and  _152
REMARK   66  A    between atoms: _157  and  _159
REMARK   67  A    between atoms: _159  and  _160
REMARK   68  A    between atoms: _163  and  _165
REMARK   69  A    between atoms: _165  and  _166
REMARK   70  A    between atoms: _165  and  _168
REMARK   71  A    between atoms: _168  and  _169
REMARK   72  A    between atoms: _174  and  _176
REMARK   73  A    between atoms: _176  and  _177
REMARK   74  A    between atoms: _180  and  _182
REMARK   75  A    between atoms: _182  and  _183
REMARK   76  A    between atoms: _186  and  _188
REMARK   77  A    between atoms: _188  and  _189
REMARK   78  A    between atoms: _188  and  _191
REMARK   79  A    between atoms: _191  and  _192
REMARK   80  A    between atoms: _197  and  _199
REMARK   81  A    between atoms: _199  and  _200
REMARK   82  A    between atoms: _199  and  _202
REMARK   83  A    between atoms: _202  and  _203
REMARK   84  A    between atoms: _206  and  _208
REMARK   85  A    between atoms: _208  and  _209
REMARK   86  A    between atoms: _211  and  _213
REMARK   87  A    between atoms: _213  and  _214
REMARK   88  A    between atoms: _213  and  _216
REMARK   89  A    between atoms: _216  and  _217
REMARK   90  A    between atoms: _217  and  _218
REMARK   91  A    between atoms: _221  and  _223
REMARK   92  A    between atoms: _223  and  _224
REMARK   93  A    between atoms: _223  and  _226
REMARK   94  A    between atoms: _226  and  _227
REMARK   95  A    between atoms: _230  and  _232
REMARK   96  A    between atoms: _232  and  _233
REMARK   97  A    between atoms: _232  and  _235
REMARK   98  A    between atoms: _235  and  _236
REMARK   99  A    between atoms: _238  and  _240
REMARK  100  A    between atoms: _240  and  _241
REMARK  101  A    between atoms: _240  and  _243
REMARK  102  A    between atoms: _243  and  _244
REMARK  103  A    between atoms: _247  and  _249
REMARK  104  A    between atoms: _249  and  _250
REMARK  105  A    between atoms: _249  and  _252
REMARK  106  A    between atoms: _252  and  _253
REMARK  107  A    between atoms: _253  and  _254
REMARK  108  A    between atoms: _256  and  _258
REMARK  109  A    between atoms: _258  and  _259
REMARK  110  A    between atoms: _262  and  _264
REMARK  111  A    between atoms: _264  and  _265
REMARK  112  A    between atoms: _268  and  _270
REMARK  113  A    between atoms: _270  and  _271
REMARK  114  A    between atoms: _270  and  _273
REMARK  115  A    between atoms: _273  and  _274
REMARK  116  A    between atoms: _277  and  _279
REMARK  117  A    between atoms: _279  and  _280
REMARK  118  A    between atoms: _279  and  _282
REMARK  119  A    between atoms: _282  and  _283
REMARK  120  A    between atoms: _288  and  _290
REMARK  121  A    between atoms: _290  and  _291
REMARK  122  A    between atoms: _290  and  _293
REMARK  123  A    between atoms: _293  and  _294
REMARK  124  A    between atoms: _294  and  _295
REMARK  125  A    between atoms: _298  and  _300
REMARK  126  A    between atoms: _300  and  _301
REMARK  127  A    between atoms: _300  and  _303
REMARK  128  A    between atoms: _303  and  _304
REMARK  129  A    between atoms: _307  and  _309
REMARK  130  A    between atoms: _309  and  _310
REMARK  131  A    between atoms: _309  and  _312
REMARK  132  A    between atoms: _312  and  _313
REMARK  133  A    between atoms: _313  and  _314
REMARK  134  A    between atoms: _314  and  _315
REMARK  135  A    between atoms: _324  and  _326
REMARK  136  A    between atoms: _326  and  _327
REMARK  137  A    between atoms: _329  and  _331
REMARK  138  A    between atoms: _331  and  _332
REMARK  139  A    between atoms: _331  and  _334
REMARK  140  A    between atoms: _334  and  _335
REMARK  141  A    between atoms: _335  and  _336
REMARK  142  A    between atoms: _338  and  _340
REMARK  143  A    between atoms: _340  and  _341
REMARK  144  A    between atoms: _340  and  _343
REMARK  145  A    between atoms: _343  and  _344
REMARK  146  A    between atoms: _344  and  _345
REMARK  147  A    between atoms: _347  and  _349
REMARK  148  A    between atoms: _349  and  _350
REMARK  149  A    between atoms: _349  and  _352
REMARK  150  A    between atoms: _352  and  _353
REMARK  151  A    between atoms: _358  and  _360
REMARK  152  A    between atoms: _360  and  _361
REMARK  153  A    between atoms: _360  and  _363
REMARK  154  A    between atoms: _363  and  _364
REMARK  155  A    between atoms: _364  and  _365
REMARK  156  A    between atoms: _367  and  _369
REMARK  157  A    between atoms: _369  and  _370
REMARK  158  A    between atoms: _369  and  _372
REMARK  159  A    between atoms: _372  and  _373
REMARK  160  A    between atoms: _376  and  _378
REMARK  161  A    between atoms: _378  and  _379
REMARK  162  A    between atoms: _378  and  _381
REMARK  163  A    between atoms: _381  and  _382
REMARK  164  A    between atoms: _384  and  _386
REMARK  165  A    between atoms: _386  and  _387
REMARK  166  A    between atoms: _386  and  _389
REMARK  167  A    between atoms: _389  and  _390
REMARK  168  A    between atoms: _390  and  _391
REMARK  169  A    between atoms: _391  and  _392
REMARK  170  A    between atoms: _392  and  _393
REMARK  171  A    between atoms: _397  and  _399
REMARK  172  A    between atoms: _399  and  _400
REMARK  173  A    between atoms: _399  and  _402
REMARK  174  A    between atoms: _402  and  _403
REMARK  175  A    between atoms: _406  and  _408
REMARK  176  A    between atoms: _408  and  _409
REMARK  177  A    between atoms: _408  and  _411
REMARK  178  A    between atoms: _411  and  _412
REMARK  179  A    between atoms: _412  and  _413
REMARK  180  A    between atoms: _416  and  _418
REMARK  181  A    between atoms: _418  and  _419
REMARK  182  A    between atoms: _422  and  _424
REMARK  183  A    between atoms: _424  and  _425
REMARK  184  A    between atoms: _424  and  _427
REMARK  185  A    between atoms: _430  and  _432
REMARK  186  A    between atoms: _432  and  _433
REMARK  187  A    between atoms: _432  and  _435
REMARK  188  A    between atoms: _435  and  _436
REMARK  189  A    between atoms: _438  and  _440
REMARK  190  A    between atoms: _440  and  _441
REMARK  191  A    between atoms: _443  and  _445
REMARK  192  A    between atoms: _445  and  _446
REMARK  193  A    between atoms: _445  and  _448
REMARK  194  A    between atoms: _448  and  _449
REMARK  195  A    between atoms: _454  and  _456
REMARK  196  A    between atoms: _456  and  _457
REMARK  197  A    between atoms: _456  and  _459
REMARK  198  A    between atoms: _459  and  _460
REMARK  199  A    between atoms: _465  and  _466
REMARK  200  A    between atoms: _468  and  _470
REMARK  201  A    between atoms: _470  and  _471
REMARK  202  A    between atoms: _470  and  _473
REMARK  203  A    between atoms: _475  and  _477
REMARK  204  A    between atoms: _477  and  _478
REMARK  205  A    between atoms: _477  and  _480
REMARK  206  A    between atoms: _480  and  _481
REMARK  207  A    between atoms: _484  and  _486
REMARK  208  A    between atoms: _486  and  _487
REMARK  209  A    between atoms: _486  and  _489
REMARK  210  A    between atoms: _489  and  _490
REMARK  211  A    between atoms: _493  and  _495
REMARK  212  A    between atoms: _495  and  _496
REMARK  213  A    between atoms: _495  and  _498
REMARK  214  A    between atoms: _498  and  _499
REMARK  215  A    between atoms: _499  and  _500
REMARK  216  A    between atoms: _500  and  _501
REMARK  217  A    between atoms: _501  and  _502
REMARK  218  A    between atoms: _506  and  _508
REMARK  219  A    between atoms: _508  and  _509
REMARK  220  A    between atoms: _508  and  _511
REMARK  221  A    between atoms: _511  and  _512
REMARK  222  A    between atoms: _512  and  _513
REMARK  223  A    between atoms: _513  and  _514
REMARK  224  A    between atoms: _514  and  _515
REMARK  225  A    between atoms: _519  and  _521
REMARK  226  A    between atoms: _521  and  _522
REMARK  227  A    between atoms: _521  and  _524
REMARK  228  A    between atoms: _524  and  _525
REMARK  229  A    between atoms: _525  and  _526
REMARK  230  A    between atoms: _526  and  _527
REMARK  231  A    between atoms: _536  and  _538
REMARK  232  A    between atoms: _538  and  _539
REMARK  233  A    between atoms: _538  and  _541
REMARK  234  A    between atoms: _541  and  _542
REMARK  235  A    between atoms: _545  and  _547
REMARK  236  A    between atoms: _547  and  _548
REMARK  237  A    between atoms: _551  and  _553
REMARK  238  A    between atoms: _553  and  _554
REMARK  239  A    between atoms: _553  and  _556
REMARK  240  A    between atoms: _556  and  _557
REMARK  241  A    between atoms: _557  and  _558
REMARK                            x       y       z     vdW  Elec       q    Type
REMARK                         _______ _______ _______ _____ _____    ______ ____
ROOT
ATOM      1  NE  ARG A   1      -5.038  13.162  37.500  0.00  0.00    -0.265 N 
ATOM      2  CZ  ARG A   1      -5.530  12.170  38.232  0.00  0.00    +0.342 C 
ATOM      3  NH2 ARG A   1      -6.158  12.460  39.350  0.00  0.00    -0.292 N 
ATOM      4 HH21 ARG A   1      -6.551  11.698  39.938  0.00  0.00    +0.255 HD
ATOM      5 HH22 ARG A   1      -6.262  13.452  39.646  0.00  0.00    +0.255 HD
ATOM      6  NH1 ARG A   1      -5.432  10.904  37.867  0.00  0.00    -0.292 N 
ATOM      7 HH11 ARG A   1      -5.831  10.157  38.470  0.00  0.00    +0.255 HD
ATOM      8 HH12 ARG A   1      -4.955  10.655  36.977  0.00  0.00    +0.255 HD
ATOM      9  HE  ARG A   1      -5.201  14.128  37.848  0.00  0.00    +0.259 HD
ENDROOT
BRANCH   1  10
ATOM     10  CD  ARG A   1      -4.291  13.029  36.255  0.00  0.00    +0.174 C 
BRANCH  10  11
ATOM     11  CG  ARG A   1      -2.808  13.282  36.465  0.00  0.00    +0.045 C 
BRANCH  11  12
ATOM     12  CB  ARG A   1      -2.026  13.476  35.172  0.00  0.00    +0.029 C 
BRANCH  12  13
ATOM     13  CA  ARG A   1      -0.572  13.905  35.371  0.00  0.00    +0.133 C 
BRANCH  13  14
ATOM     14  N   ARG A   1       0.057  14.261  34.106  0.00  0.00    -0.239 NA
ATOM     15  H   ARG A   1       0.579  13.524  33.591  0.00  0.00    +0.142 HD
ENDBRANCH  13  14
BRANCH  13  16
ATOM     16  C   ARG A   1       0.250  12.769  35.962  0.00  0.00    +0.224 C 
ATOM     17  O   ARG A   1       0.681  11.870  35.244  0.00  0.00    -0.287 OA
ENDBRANCH  13  16
ENDBRANCH  12  13
ENDBRANCH  11  12
ENDBRANCH  10  11
ENDBRANCH   1  10
TORSDOF 6
REMARK  Name = ../refined-set-2016/3ccw/3ccw_pocket.pdb
REMARK  241 active torsions:
REMARK  status: ('A' for Active; 'I' for Inactive)
REMARK    1  A    between atoms: _1  and  _3
REMARK    2  A    between atoms: _3  and  _4
REMARK    3  A    between atoms: _3  and  _6
REMARK    4  A    between atoms: _6  and  _7
REMARK    5  A    between atoms: _10  and  _12
REMARK    6  A    between atoms: _12  and  _13
REMARK    7  A    between atoms: _12  and  _15
REMARK    8  A    between atoms: _15  and  _16
REMARK    9  A    between atoms: _16  and  _17
REMARK   10  A    between atoms: _20  and  _22
REMARK   11  A    between atoms: _22  and  _23
REMARK   12  A    between atoms: _25  and  _27
REMARK   13  A    between atoms: _27  and  _28
REMARK   14  A    between atoms: _27  and  _30
REMARK   15  A    between atoms: _32  and  _34
REMARK   16  A    between atoms: _34  and  _35
REMARK   17  A    between atoms: _34  and  _37
REMARK   18  A    between atoms: _37  and  _38
REMARK   19  A    between atoms: _41  and  _43
REMARK   20  A    between atoms: _43  and  _44
REMARK   21  A    between atoms: _43  and  _46
REMARK   22  A    between atoms: _49  and  _51
REMARK   23  A    between atoms: _51  and  _52
REMARK   24  A    between atoms: _55  and  _57
REMARK   25  A    between atoms: _57  and  _58
REMARK   26  A    between atoms: _57  and  _60
REMARK   27  A    between atoms: _60  and  _61
REMARK   28  A    between atoms: _63  and  _65
REMARK   29  A    between atoms: _65  and  _66
REMARK   30  A    between atoms: _65  and  _68
REMARK   31  A    between atoms: _68  and  _69
REMARK   32  A    between atoms: _72  and  _74
REMARK   33  A    between atoms: _74  and  _75
REMARK   34  A    between atoms: _74  and  _77
REMARK   35  A    between atoms: _77  and  _78
REMARK   36  A    between atoms: _83  and  _85
REMARK   37  A    between atoms: _85  and  _86
REMARK   38  A    between atoms: _85  and  _88
REMARK   39  A    between atoms: _88  and  _89
REMARK   40  A    between atoms: _89  and  _90
REMARK   41  A    between atoms: _90  and  _91
REMARK   42  A    between atoms: _100  and  _102
REMARK   43  A    between atoms: _102  and  _103
REMARK   44  A    between atoms: _105  and  _107
REMARK   45  A    between atoms: _107  and  _108
REMARK   46  A    between atoms: _107  and  _110
REMARK   47  A    between atoms: _113  and  _115
REMARK   48  A    between atoms: _115  and  _116
REMARK   49  A    between atoms: _115  and  _118
REMARK   50  A    between atoms: _118  and  _119
REMARK   51  A    between atoms: _122  and  _124
REMARK   52  A    between atoms: _124  and  _125
REMARK   53  A    between atoms: _124  and  _127
REMARK   54  A    between atoms: _127  and  _128
REMARK   55  A    between atoms: _128  and  _129
REMARK   56  A    between atoms: _129  and  _130
REMARK   57  A    between atoms: _130  and  _131
REMARK   58  A    between atoms: _135  and  _137
REMARK   59  A    between atoms: _137  and  _138
REMARK   60  A    between atoms: _137  and  _140
REMARK   61  A    between atoms: _140  and  _141
REMARK   62  A    between atoms: _146  and  _148
REMARK   63  A    between atoms: _148  and  _149
REMARK   64  A    between atoms: _148  and  _151
REMARK   65  A    between atoms: _151  and  _152
REMARK   66  A    between atoms: _157  and  _159
REMARK   67  A    between atoms: _159  and  _160
REMARK   68  A    between atoms: _163  and  _165
REMARK   69  A    between atoms: _165  and  _166
REMARK   70  A    between atoms: _165  and  _168
REMARK   71  A    between atoms: _168  and  _169
REMARK   72  A    between atoms: _174  and  _176
REMARK   73  A    between atoms: _176  and  _177
REMARK   74  A    between atoms: _180  and  _182
REMARK   75  A    between atoms: _182  and  _183
REMARK   76  A    between atoms: _186  and  _188
REMARK   77  A    between atoms: _188  and  _189
REMARK   78  A    between atoms: _188  and  _191
REMARK   79  A    between atoms: _191  and  _192
REMARK   80  A    between atoms: _197  and  _199
REMARK   81  A    between atoms: _199  and  _200
REMARK   82  A    between atoms: _199  and  _202
REMARK   83  A    between atoms: _202  and  _203
REMARK   84  A    between atoms: _206  and  _208
REMARK   85  A    between atoms: _208  and  _209
REMARK   86  A    between atoms: _211  and  _213
REMARK   87  A    between atoms: _213  and  _214
REMARK   88  A    between atoms: _213  and  _216
REMARK   89  A    between atoms: _216  and  _217
REMARK   90  A    between atoms: _217  and  _218
REMARK   91  A    between atoms: _221  and  _223
REMARK   92  A    between atoms: _223  and  _224
REMARK   93  A    between atoms: _223  and  _226
REMARK   94  A    between atoms: _226  and  _227
REMARK   95  A    between atoms: _230  and  _232
REMARK   96  A    between atoms: _232  and  _233
REMARK   97  A    between atoms: _232  and  _235
REMARK   98  A    between atoms: _235  and  _236
REMARK   99  A    between atoms: _238  and  _240
REMARK  100  A    between atoms: _240  and  _241
REMARK  101  A    between atoms: _240  and  _243
REMARK  102  A    between atoms: _243  and  _244
REMARK  103  A    between atoms: _247  and  _249
REMARK  104  A    between atoms: _249  and  _250
REMARK  105  A    between atoms: _249  and  _252
REMARK  106  A    between atoms: _252  and  _253
REMARK  107  A    between atoms: _253  and  _254
REMARK  108  A    between atoms: _256  and  _258
REMARK  109  A    between atoms: _258  and  _259
REMARK  110  A    between atoms: _262  and  _264
REMARK  111  A    between atoms: _264  and  _265
REMARK  112  A    between atoms: _268  and  _270
REMARK  113  A    between atoms: _270  and  _271
REMARK  114  A    between atoms: _270  and  _273
REMARK  115  A    between atoms: _273  and  _274
REMARK  116  A    between atoms: _277  and  _279
REMARK  117  A    between atoms: _279  and  _280
REMARK  118  A    between atoms: _279  and  _282
REMARK  119  A    between atoms: _282  and  _283
REMARK  120  A    between atoms: _288  and  _290
REMARK  121  A    between atoms: _290  and  _291
REMARK  122  A    between atoms: _290  and  _293
REMARK  123  A    between atoms: _293  and  _294
REMARK  124  A    between atoms: _294  and  _295
REMARK  125  A    between atoms: _298  and  _300
REMARK  126  A    between atoms: _300  and  _301
REMARK  127  A    between atoms: _300  and  _303
REMARK  128  A    between atoms: _303  and  _304
REMARK  129  A    between atoms: _307  and  _309
REMARK  130  A    between atoms: _309  and  _310
REMARK  131  A    between atoms: _309  and  _312
REMARK  132  A    between atoms: _312  and  _313
REMARK  133  A    between atoms: _313  and  _314
REMARK  134  A    between atoms: _314  and  _315
REMARK  135  A    between atoms: _324  and  _326
REMARK  136  A    between atoms: _326  and  _327
REMARK  137  A    between atoms: _329  and  _331
REMARK  138  A    between atoms: _331  and  _332
REMARK  139  A    between atoms: _331  and  _334
REMARK  140  A    between atoms: _334  and  _335
REMARK  141  A    between atoms: _335  and  _336
REMARK  142  A    between atoms: _338  and  _340
REMARK  143  A    between atoms: _340  and  _341
REMARK  144  A    between atoms: _340  and  _343
REMARK  145  A    between atoms: _343  and  _344
REMARK  146  A    between atoms: _344  and  _345
REMARK  147  A    between atoms: _347  and  _349
REMARK  148  A    between atoms: _349  and  _350
REMARK  149  A    between atoms: _349  and  _352
REMARK  150  A    between atoms: _352  and  _353
REMARK  151  A    between atoms: _358  and  _360
REMARK  152  A    between atoms: _360  and  _361
REMARK  153  A    between atoms: _360  and  _363
REMARK  154  A    between atoms: _363  and  _364
REMARK  155  A    between atoms: _364  and  _365
REMARK  156  A    between atoms: _367  and  _369
REMARK  157  A    between atoms: _369  and  _370
REMARK  158  A    between atoms: _369  and  _372
REMARK  159  A    between atoms: _372  and  _373
REMARK  160  A    between atoms: _376  and  _378
REMARK  161  A    between atoms: _378  and  _379
REMARK  162  A    between atoms: _378  and  _381
REMARK  163  A    between atoms: _381  and  _382
REMARK  164  A    between atoms: _384  and  _386
REMARK  165  A    between atoms: _386  and  _387
REMARK  166  A    between atoms: _386  and  _389
REMARK  167  A    between atoms: _389  and  _390
REMARK  168  A    between atoms: _390  and  _391
REMARK  169  A    between atoms: _391  and  _392
REMARK  170  A    between atoms: _392  and  _393
REMARK  171  A    between atoms: _397  and  _399
REMARK  172  A    between atoms: _399  and  _400
REMARK  173  A    between atoms: _399  and  _402
REMARK  174  A    between atoms: _402  and  _403
REMARK  175  A    between atoms: _406  and  _408
REMARK  176  A    between atoms: _408  and  _409
REMARK  177  A    between atoms: _408  and  _411
REMARK  178  A    between atoms: _411  and  _412
REMARK  179  A    between atoms: _412  and  _413
REMARK  180  A    between atoms: _416  and  _418
REMARK  181  A    between atoms: _418  and  _419
REMARK  182  A    between atoms: _422  and  _424
REMARK  183  A    between atoms: _424  and  _425
REMARK  184  A    between atoms: _424  and  _427
REMARK  185  A    between atoms: _430  and  _432
REMARK  186  A    between atoms: _432  and  _433
REMARK  187  A    between atoms: _432  and  _435
REMARK  188  A    between atoms: _435  and  _436
REMARK  189  A    between atoms: _438  and  _440
REMARK  190  A    between atoms: _440  and  _441
REMARK  191  A    between atoms: _443  and  _445
REMARK  192  A    between atoms: _445  and  _446
REMARK  193  A    between atoms: _445  and  _448
REMARK  194  A    between atoms: _448  and  _449
REMARK  195  A    between atoms: _454  and  _456
REMARK  196  A    between atoms: _456  and  _457
REMARK  197  A    between atoms: _456  and  _459
REMARK  198  A    between atoms: _459  and  _460
REMARK  199  A    between atoms: _465  and  _466
REMARK  200  A    between atoms: _468  and  _470
REMARK  201  A    between atoms: _470  and  _471
REMARK  202  A    between atoms: _470  and  _473
REMARK  203  A    between atoms: _475  and  _477
REMARK  204  A    between atoms: _477  and  _478
REMARK  205  A    between atoms: _477  and  _480
REMARK  206  A    between atoms: _480  and  _481
REMARK  207  A    between atoms: _484  and  _486
REMARK  208  A    between atoms: _486  and  _487
REMARK  209  A    between atoms: _486  and  _489
REMARK  210  A    between atoms: _489  and  _490
REMARK  211  A    between atoms: _493  and  _495
REMARK  212  A    between atoms: _495  and  _496
REMARK  213  A    between atoms: _495  and  _498
REMARK  214  A    between atoms: _498  and  _499
REMARK  215  A    between atoms: _499  and  _500
REMARK  216  A    between atoms: _500  and  _501
REMARK  217  A    between atoms: _501  and  _502
REMARK  218  A    between atoms: _506  and  _508
REMARK  219  A    between atoms: _508  and  _509
REMARK  220  A    between atoms: _508  and  _511
REMARK  221  A    between atoms: _511  and  _512
REMARK  222  A    between atoms: _512  and  _513
REMARK  223  A    between atoms: _513  and  _514
REMARK  224  A    between atoms: _514  and  _515
REMARK  225  A    between atoms: _519  and  _521
REMARK  226  A    between atoms: _521  and  _522
REMARK  227  A    between atoms: _521  and  _524
REMARK  228  A    between atoms: _524  and  _525
REMARK  229  A    between atoms: _525  and  _526
REMARK  230  A    between atoms: _526  and  _527
REMARK  231  A    between atoms: _536  and  _538
REMARK  232  A    between atoms: _538  and  _539
REMARK  233  A    between atoms: _538  and  _541
REMARK  234  A    between atoms: _541  and  _542
REMARK  235  A    between atoms: _545  and  _547
REMARK  236  A    between atoms: _547  and  _548
REMARK  237  A    between atoms: _551  and  _553
REMARK  238  A    between atoms: _553  and  _554
REMARK  239  A    between atoms: _553  and  _556
REMARK  240  A    between atoms: _556  and  _557
REMARK  241  A    between atoms: _557  and  _558
REMARK                            x       y       z     vdW  Elec       q    Type
REMARK                         _______ _______ _______ _____ _____    ______ ____
ROOT
ATOM      1  CA  ASP A   1      -5.026   1.001  40.260  0.00  0.00    +0.144 C 
ENDROOT
BRANCH   1   2
ATOM      2  N   ASP A   1      -3.626   0.854  40.603  0.00  0.00    -0.239 NA
ATOM      3  H   ASP A   1      -3.018   1.697  40.571  0.00  0.00    +0.142 HD
ENDBRANCH   1   2
BRANCH   1   4
ATOM      4  C   ASP A   1      -5.125   0.770  38.767  0.00  0.00    +0.225 C 
ATOM      5  O   ASP A   1      -4.720   1.609  37.985  0.00  0.00    -0.287 OA
ENDBRANCH   1   4
BRANCH   1   6
ATOM      6  CB  ASP A   1      -5.487   2.408  40.639  0.00  0.00    +0.139 C 
BRANCH   6   7
ATOM      7  CG  ASP A   1      -6.991   2.582  40.595  0.00  0.00    +0.367 C 
ATOM      8  OD2 ASP A   1      -7.562   3.456  41.284  0.00  0.00    -0.246 OA
ATOM      9  OD1 ASP A   1      -7.688   1.859  39.842  0.00  0.00    -0.246 OA
ENDBRANCH   6   7
ENDBRANCH   1   6
TORSDOF 4
REMARK  Name = ../refined-set-2016/3ccw/3ccw_pocket.pdb
REMARK  241 active torsions:
REMARK  status: ('A' for Active; 'I' for Inactive)
REMARK    1  A    between atoms: _1  and  _3
REMARK    2  A    between atoms: _3  and  _4
REMARK    3  A    between atoms: _3  and  _6
REMARK    4  A    between atoms: _6  and  _7
REMARK    5  A    between atoms: _10  and  _12
REMARK    6  A    between atoms: _12  and  _13
REMARK    7  A    between atoms: _12  and  _15
REMARK    8  A    between atoms: _15  and  _16
REMARK    9  A    between atoms: _16  and  _17
REMARK   10  A    between atoms: _20  and  _22
REMARK   11  A    between atoms: _22  and  _23
REMARK   12  A    between atoms: _25  and  _27
REMARK   13  A    between atoms: _27  and  _28
REMARK   14  A    between atoms: _27  and  _30
REMARK   15  A    between atoms: _32  and  _34
REMARK   16  A    between atoms: _34  and  _35
REMARK   17  A    between atoms: _34  and  _37
REMARK   18  A    between atoms: _37  and  _38
REMARK   19  A    between atoms: _41  and  _43
REMARK   20  A    between atoms: _43  and  _44
REMARK   21  A    between atoms: _43  and  _46
REMARK   22  A    between atoms: _49  and  _51
REMARK   23  A    between atoms: _51  and  _52
REMARK   24  A    between atoms: _55  and  _57
REMARK   25  A    between atoms: _57  and  _58
REMARK   26  A    between atoms: _57  and  _60
REMARK   27  A    between atoms: _60  and  _61
REMARK   28  A    between atoms: _63  and  _65
REMARK   29  A    between atoms: _65  and  _66
REMARK   30  A    between atoms: _65  and  _68
REMARK   31  A    between atoms: _68  and  _69
REMARK   32  A    between atoms: _72  and  _74
REMARK   33  A    between atoms: _74  and  _75
REMARK   34  A    between atoms: _74  and  _77
REMARK   35  A    between atoms: _77  and  _78
REMARK   36  A    between atoms: _83  and  _85
REMARK   37  A    between atoms: _85  and  _86
REMARK   38  A    between atoms: _85  and  _88
REMARK   39  A    between atoms: _88  and  _89
REMARK   40  A    between atoms: _89  and  _90
REMARK   41  A    between atoms: _90  and  _91
REMARK   42  A    between atoms: _100  and  _102
REMARK   43  A    between atoms: _102  and  _103
REMARK   44  A    between atoms: _105  and  _107
REMARK   45  A    between atoms: _107  and  _108
REMARK   46  A    between atoms: _107  and  _110
REMARK   47  A    between atoms: _113  and  _115
REMARK   48  A    between atoms: _115  and  _116
REMARK   49  A    between atoms: _115  and  _118
REMARK   50  A    between atoms: _118  and  _119
REMARK   51  A    between atoms: _122  and  _124
REMARK   52  A    between atoms: _124  and  _125
REMARK   53  A    between atoms: _124  and  _127
REMARK   54  A    between atoms: _127  and  _128
REMARK   55  A    between atoms: _128  and  _129
REMARK   56  A    between atoms: _129  and  _130
REMARK   57  A    between atoms: _130  and  _131
REMARK   58  A    between atoms: _135  and  _137
REMARK   59  A    between atoms: _137  and  _138
REMARK   60  A    between atoms: _137  and  _140
REMARK   61  A    between atoms: _140  and  _141
REMARK   62  A    between atoms: _146  and  _148
REMARK   63  A    between atoms: _148  and  _149
REMARK   64  A    between atoms: _148  and  _151
REMARK   65  A    between atoms: _151  and  _152
REMARK   66  A    between atoms: _157  and  _159
REMARK   67  A    between atoms: _159  and  _160
REMARK   68  A    between atoms: _163  and  _165
REMARK   69  A    between atoms: _165  and  _166
REMARK   70  A    between atoms: _165  and  _168
REMARK   71  A    between atoms: _168  and  _169
REMARK   72  A    between atoms: _174  and  _176
REMARK   73  A    between atoms: _176  and  _177
REMARK   74  A    between atoms: _180  and  _182
REMARK   75  A    between atoms: _182  and  _183
REMARK   76  A    between atoms: _186  and  _188
REMARK   77  A    between atoms: _188  and  _189
REMARK   78  A    between atoms: _188  and  _191
REMARK   79  A    between atoms: _191  and  _192
REMARK   80  A    between atoms: _197  and  _199
REMARK   81  A    between atoms: _199  and  _200
REMARK   82  A    between atoms: _199  and  _202
REMARK   83  A    between atoms: _202  and  _203
REMARK   84  A    between atoms: _206  and  _208
REMARK   85  A    between atoms: _208  and  _209
REMARK   86  A    between atoms: _211  and  _213
REMARK   87  A    between atoms: _213  and  _214
REMARK   88  A    between atoms: _213  and  _216
REMARK   89  A    between atoms: _216  and  _217
REMARK   90  A    between atoms: _217  and  _218
REMARK   91  A    between atoms: _221  and  _223
REMARK   92  A    between atoms: _223  and  _224
REMARK   93  A    between atoms: _223  and  _226
REMARK   94  A    between atoms: _226  and  _227
REMARK   95  A    between atoms: _230  and  _232
REMARK   96  A    between atoms: _232  and  _233
REMARK   97  A    between atoms: _232  and  _235
REMARK   98  A    between atoms: _235  and  _236
REMARK   99  A    between atoms: _238  and  _240
REMARK  100  A    between atoms: _240  and  _241
REMARK  101  A    between atoms: _240  and  _243
REMARK  102  A    between atoms: _243  and  _244
REMARK  103  A    between atoms: _247  and  _249
REMARK  104  A    between atoms: _249  and  _250
REMARK  105  A    between atoms: _249  and  _252
REMARK  106  A    between atoms: _252  and  _253
REMARK  107  A    between atoms: _253  and  _254
REMARK  108  A    between atoms: _256  and  _258
REMARK  109  A    between atoms: _258  and  _259
REMARK  110  A    between atoms: _262  and  _264
REMARK  111  A    between atoms: _264  and  _265
REMARK  112  A    between atoms: _268  and  _270
REMARK  113  A    between atoms: _270  and  _271
REMARK  114  A    between atoms: _270  and  _273
REMARK  115  A    between atoms: _273  and  _274
REMARK  116  A    between atoms: _277  and  _279
REMARK  117  A    between atoms: _279  and  _280
REMARK  118  A    between atoms: _279  and  _282
REMARK  119  A    between atoms: _282  and  _283
REMARK  120  A    between atoms: _288  and  _290
REMARK  121  A    between atoms: _290  and  _291
REMARK  122  A    between atoms: _290  and  _293
REMARK  123  A    between atoms: _293  and  _294
REMARK  124  A    between atoms: _294  and  _295
REMARK  125  A    between atoms: _298  and  _300
REMARK  126  A    between atoms: _300  and  _301
REMARK  127  A    between atoms: _300  and  _303
REMARK  128  A    between atoms: _303  and  _304
REMARK  129  A    between atoms: _307  and  _309
REMARK  130  A    between atoms: _309  and  _310
REMARK  131  A    between atoms: _309  and  _312
REMARK  132  A    between atoms: _312  and  _313
REMARK  133  A    between atoms: _313  and  _314
REMARK  134  A    between atoms: _314  and  _315
REMARK  135  A    between atoms: _324  and  _326
REMARK  136  A    between atoms: _326  and  _327
REMARK  137  A    between atoms: _329  and  _331
REMARK  138  A    between atoms: _331  and  _332
REMARK  139  A    between atoms: _331  and  _334
REMARK  140  A    between atoms: _334  and  _335
REMARK  141  A    between atoms: _335  and  _336
REMARK  142  A    between atoms: _338  and  _340
REMARK  143  A    between atoms: _340  and  _341
REMARK  144  A    between atoms: _340  and  _343
REMARK  145  A    between atoms: _343  and  _344
REMARK  146  A    between atoms: _344  and  _345
REMARK  147  A    between atoms: _347  and  _349
REMARK  148  A    between atoms: _349  and  _350
REMARK  149  A    between atoms: _349  and  _352
REMARK  150  A    between atoms: _352  and  _353
REMARK  151  A    between atoms: _358  and  _360
REMARK  152  A    between atoms: _360  and  _361
REMARK  153  A    between atoms: _360  and  _363
REMARK  154  A    between atoms: _363  and  _364
REMARK  155  A    between atoms: _364  and  _365
REMARK  156  A    between atoms: _367  and  _369
REMARK  157  A    between atoms: _369  and  _370
REMARK  158  A    between atoms: _369  and  _372
REMARK  159  A    between atoms: _372  and  _373
REMARK  160  A    between atoms: _376  and  _378
REMARK  161  A    between atoms: _378  and  _379
REMARK  162  A    between atoms: _378  and  _381
REMARK  163  A    between atoms: _381  and  _382
REMARK  164  A    between atoms: _384  and  _386
REMARK  165  A    between atoms: _386  and  _387
REMARK  166  A    between atoms: _386  and  _389
REMARK  167  A    between atoms: _389  and  _390
REMARK  168  A    between atoms: _390  and  _391
REMARK  169  A    between atoms: _391  and  _392
REMARK  170  A    between atoms: _392  and  _393
REMARK  171  A    between atoms: _397  and  _399
REMARK  172  A    between atoms: _399  and  _400
REMARK  173  A    between atoms: _399  and  _402
REMARK  174  A    between atoms: _402  and  _403
REMARK  175  A    between atoms: _406  and  _408
REMARK  176  A    between atoms: _408  and  _409
REMARK  177  A    between atoms: _408  and  _411
REMARK  178  A    between atoms: _411  and  _412
REMARK  179  A    between atoms: _412  and  _413
REMARK  180  A    between atoms: _416  and  _418
REMARK  181  A    between atoms: _418  and  _419
REMARK  182  A    between atoms: _422  and  _424
REMARK  183  A    between atoms: _424  and  _425
REMARK  184  A    between atoms: _424  and  _427
REMARK  185  A    between atoms: _430  and  _432
REMARK  186  A    between atoms: _432  and  _433
REMARK  187  A    between atoms: _432  and  _435
REMARK  188  A    between atoms: _435  and  _436
REMARK  189  A    between atoms: _438  and  _440
REMARK  190  A    between atoms: _440  and  _441
REMARK  191  A    between atoms: _443  and  _445
REMARK  192  A    between atoms: _445  and  _446
REMARK  193  A    between atoms: _445  and  _448
REMARK  194  A    between atoms: _448  and  _449
REMARK  195  A    between atoms: _454  and  _456
REMARK  196  A    between atoms: _456  and  _457
REMARK  197  A    between atoms: _456  and  _459
REMARK  198  A    between atoms: _459  and  _460
REMARK  199  A    between atoms: _465  and  _466
REMARK  200  A    between atoms: _468  and  _470
REMARK  201  A    between atoms: _470  and  _471
REMARK  202  A    between atoms: _470  and  _473
REMARK  203  A    between atoms: _475  and  _477
REMARK  204  A    between atoms: _477  and  _478
REMARK  205  A    between atoms: _477  and  _480
REMARK  206  A    between atoms: _480  and  _481
REMARK  207  A    between atoms: _484  and  _486
REMARK  208  A    between atoms: _486  and  _487
REMARK  209  A    between atoms: _486  and  _489
REMARK  210  A    between atoms: _489  and  _490
REMARK  211  A    between atoms: _493  and  _495
REMARK  212  A    between atoms: _495  and  _496
REMARK  213  A    between atoms: _495  and  _498
REMARK  214  A    between atoms: _498  and  _499
REMARK  215  A    between atoms: _499  and  _500
REMARK  216  A    between atoms: _500  and  _501
REMARK  217  A    between atoms: _501  and  _502
REMARK  218  A    between atoms: _506  and  _508
REMARK  219  A    between atoms: _508  and  _509
REMARK  220  A    between atoms: _508  and  _511
REMARK  221  A    between atoms: _511  and  _512
REMARK  222  A    between atoms: _512  and  _513
REMARK  223  A    between atoms: _513  and  _514
REMARK  224  A    between atoms: _514  and  _515
REMARK  225  A    between atoms: _519  and  _521
REMARK  226  A    between atoms: _521  and  _522
REMARK  227  A    between atoms: _521  and  _524
REMARK  228  A    between atoms: _524  and  _525
REMARK  229  A    between atoms: _525  and  _526
REMARK  230  A    between atoms: _526  and  _527
REMARK  231  A    between atoms: _536  and  _538
REMARK  232  A    between atoms: _538  and  _539
REMARK  233  A    between atoms: _538  and  _541
REMARK  234  A    between atoms: _541  and  _542
REMARK  235  A    between atoms: _545  and  _547
REMARK  236  A    between atoms: _547  and  _548
REMARK  237  A    between atoms: _551  and  _553
REMARK  238  A    between atoms: _553  and  _554
REMARK  239  A    between atoms: _553  and  _556
REMARK  240  A    between atoms: _556  and  _557
REMARK  241  A    between atoms: _557  and  _558
REMARK                            x       y       z     vdW  Elec       q    Type
REMARK                         _______ _______ _______ _____ _____    ______ ____
ROOT
ATOM      1  CA  GLN A   2      -5.864   4.288  35.812  0.00  0.00    +0.137 C 
ENDROOT
BRANCH   1   3
ATOM      2  C   ALA A   1      -7.777   2.821  35.558  0.00  0.00    +0.238 C 
ATOM      3  N   GLN A   2      -6.696   3.169  36.248  0.00  0.00    -0.298 N 
ATOM      4  H   GLN A   2      -6.440   2.640  37.106  0.00  0.00    +0.150 HD
ATOM      5  O   ALA A   1      -8.157   3.455  34.570  0.00  0.00    -0.274 OA
BRANCH   2   6
ATOM      6  CA  ALA A   1      -8.515   1.566  36.020  0.00  0.00    +0.145 C 
ATOM      7  CB  ALA A   1      -9.716   1.924  36.888  0.00  0.00    +0.028 C 
BRANCH   6   8
ATOM      8  N   ALA A   1      -7.613   0.659  36.735  0.00  0.00    -0.238 NA
ATOM      9  H   ALA A   1      -7.746   0.513  37.756  0.00  0.00    +0.142 HD
ENDBRANCH   6   8
ENDBRANCH   2   6
ENDBRANCH   1   3
BRANCH   1  10
ATOM     10  C   GLN A   2      -5.008   3.969  34.573  0.00  0.00    +0.227 C 
ATOM     11  O   GLN A   2      -4.267   4.814  34.105  0.00  0.00    -0.286 OA
ENDBRANCH   1  10
BRANCH   1  12
ATOM     12  CB  GLN A   2      -4.996   4.804  36.963  0.00  0.00    +0.037 C 
BRANCH  12  13
ATOM     13  CG  GLN A   2      -5.808   5.412  38.108  0.00  0.00    +0.087 C 
BRANCH  13  14
ATOM     14  CD  GLN A   2      -4.930   6.055  39.164  0.00  0.00    +0.219 C 
ATOM     15  OE1 GLN A   2      -3.958   5.443  39.625  0.00  0.00    -0.275 OA
ATOM     16  NE2 GLN A   2      -5.255   7.288  39.542  0.00  0.00    -0.329 N 
ATOM     17 HE21 GLN A   2      -4.682   7.781  40.256  0.00  0.00    +0.145 HD
ATOM     18 HE22 GLN A   2      -6.082   7.759  39.124  0.00  0.00    +0.145 HD
ENDBRANCH  13  14
ENDBRANCH  12  13
ENDBRANCH   1  12
TORSDOF 7
REMARK  Name = ../refined-set-2016/3ccw/3ccw_pocket.pdb
REMARK  241 active torsions:
REMARK  status: ('A' for Active; 'I' for Inactive)
REMARK    1  A    between atoms: _1  and  _3
REMARK    2  A    between atoms: _3  and  _4
REMARK    3  A    between atoms: _3  and  _6
REMARK    4  A    between atoms: _6  and  _7
REMARK    5  A    between atoms: _10  and  _12
REMARK    6  A    between atoms: _12  and  _13
REMARK    7  A    between atoms: _12  and  _15
REMARK    8  A    between atoms: _15  and  _16
REMARK    9  A    between atoms: _16  and  _17
REMARK   10  A    between atoms: _20  and  _22
REMARK   11  A    between atoms: _22  and  _23
REMARK   12  A    between atoms: _25  and  _27
REMARK   13  A    between atoms: _27  and  _28
REMARK   14  A    between atoms: _27  and  _30
REMARK   15  A    between atoms: _32  and  _34
REMARK   16  A    between atoms: _34  and  _35
REMARK   17  A    between atoms: _34  and  _37
REMARK   18  A    between atoms: _37  and  _38
REMARK   19  A    between atoms: _41  and  _43
REMARK   20  A    between atoms: _43  and  _44
REMARK   21  A    between atoms: _43  and  _46
REMARK   22  A    between atoms: _49  and  _51
REMARK   23  A    between atoms: _51  and  _52
REMARK   24  A    between atoms: _55  and  _57
REMARK   25  A    between atoms: _57  and  _58
REMARK   26  A    between atoms: _57  and  _60
REMARK   27  A    between atoms: _60  and  _61
REMARK   28  A    between atoms: _63  and  _65
REMARK   29  A    between atoms: _65  and  _66
REMARK   30  A    between atoms: _65  and  _68
REMARK   31  A    between atoms: _68  and  _69
REMARK   32  A    between atoms: _72  and  _74
REMARK   33  A    between atoms: _74  and  _75
REMARK   34  A    between atoms: _74  and  _77
REMARK   35  A    between atoms: _77  and  _78
REMARK   36  A    between atoms: _83  and  _85
REMARK   37  A    between atoms: _85  and  _86
REMARK   38  A    between atoms: _85  and  _88
REMARK   39  A    between atoms: _88  and  _89
REMARK   40  A    between atoms: _89  and  _90
REMARK   41  A    between atoms: _90  and  _91
REMARK   42  A    between atoms: _100  and  _102
REMARK   43  A    between atoms: _102  and  _103
REMARK   44  A    between atoms: _105  and  _107
REMARK   45  A    between atoms: _107  and  _108
REMARK   46  A    between atoms: _107  and  _110
REMARK   47  A    between atoms: _113  and  _115
REMARK   48  A    between atoms: _115  and  _116
REMARK   49  A    between atoms: _115  and  _118
REMARK   50  A    between atoms: _118  and  _119
REMARK   51  A    between atoms: _122  and  _124
REMARK   52  A    between atoms: _124  and  _125
REMARK   53  A    between atoms: _124  and  _127
REMARK   54  A    between atoms: _127  and  _128
REMARK   55  A    between atoms: _128  and  _129
REMARK   56  A    between atoms: _129  and  _130
REMARK   57  A    between atoms: _130  and  _131
REMARK   58  A    between atoms: _135  and  _137
REMARK   59  A    between atoms: _137  and  _138
REMARK   60  A    between atoms: _137  and  _140
REMARK   61  A    between atoms: _140  and  _141
REMARK   62  A    between atoms: _146  and  _148
REMARK   63  A    between atoms: _148  and  _149
REMARK   64  A    between atoms: _148  and  _151
REMARK   65  A    between atoms: _151  and  _152
REMARK   66  A    between atoms: _157  and  _159
REMARK   67  A    between atoms: _159  and  _160
REMARK   68  A    between atoms: _163  and  _165
REMARK   69  A    between atoms: _165  and  _166
REMARK   70  A    between atoms: _165  and  _168
REMARK   71  A    between atoms: _168  and  _169
REMARK   72  A    between atoms: _174  and  _176
REMARK   73  A    between atoms: _176  and  _177
REMARK   74  A    between atoms: _180  and  _182
REMARK   75  A    between atoms: _182  and  _183
REMARK   76  A    between atoms: _186  and  _188
REMARK   77  A    between atoms: _188  and  _189
REMARK   78  A    between atoms: _188  and  _191
REMARK   79  A    between atoms: _191  and  _192
REMARK   80  A    between atoms: _197  and  _199
REMARK   81  A    between atoms: _199  and  _200
REMARK   82  A    between atoms: _199  and  _202
REMARK   83  A    between atoms: _202  and  _203
REMARK   84  A    between atoms: _206  and  _208
REMARK   85  A    between atoms: _208  and  _209
REMARK   86  A    between atoms: _211  and  _213
REMARK   87  A    between atoms: _213  and  _214
REMARK   88  A    between atoms: _213  and  _216
REMARK   89  A    between atoms: _216  and  _217
REMARK   90  A    between atoms: _217  and  _218
REMARK   91  A    between atoms: _221  and  _223
REMARK   92  A    between atoms: _223  and  _224
REMARK   93  A    between atoms: _223  and  _226
REMARK   94  A    between atoms: _226  and  _227
REMARK   95  A    between atoms: _230  and  _232
REMARK   96  A    between atoms: _232  and  _233
REMARK   97  A    between atoms: _232  and  _235
REMARK   98  A    between atoms: _235  and  _236
REMARK   99  A    between atoms: _238  and  _240
REMARK  100  A    between atoms: _240  and  _241
REMARK  101  A    between atoms: _240  and  _243
REMARK  102  A    between atoms: _243  and  _244
REMARK  103  A    between atoms: _247  and  _249
REMARK  104  A    between atoms: _249  and  _250
REMARK  105  A    between atoms: _249  and  _252
REMARK  106  A    between atoms: _252  and  _253
REMARK  107  A    between atoms: _253  and  _254
REMARK  108  A    between atoms: _256  and  _258
REMARK  109  A    between atoms: _258  and  _259
REMARK  110  A    between atoms: _262  and  _264
REMARK  111  A    between atoms: _264  and  _265
REMARK  112  A    between atoms: _268  and  _270
REMARK  113  A    between atoms: _270  and  _271
REMARK  114  A    between atoms: _270  and  _273
REMARK  115  A    between atoms: _273  and  _274
REMARK  116  A    between atoms: _277  and  _279
REMARK  117  A    between atoms: _279  and  _280
REMARK  118  A    between atoms: _279  and  _282
REMARK  119  A    between atoms: _282  and  _283
REMARK  120  A    between atoms: _288  and  _290
REMARK  121  A    between atoms: _290  and  _291
REMARK  122  A    between atoms: _290  and  _293
REMARK  123  A    between atoms: _293  and  _294
REMARK  124  A    between atoms: _294  and  _295
REMARK  125  A    between atoms: _298  and  _300
REMARK  126  A    between atoms: _300  and  _301
REMARK  127  A    between atoms: _300  and  _303
REMARK  128  A    between atoms: _303  and  _304
REMARK  129  A    between atoms: _307  and  _309
REMARK  130  A    between atoms: _309  and  _310
REMARK  131  A    between atoms: _309  and  _312
REMARK  132  A    between atoms: _312  and  _313
REMARK  133  A    between atoms: _313  and  _314
REMARK  134  A    between atoms: _314  and  _315
REMARK  135  A    between atoms: _324  and  _326
REMARK  136  A    between atoms: _326  and  _327
REMARK  137  A    between atoms: _329  and  _331
REMARK  138  A    between atoms: _331  and  _332
REMARK  139  A    between atoms: _331  and  _334
REMARK  140  A    between atoms: _334  and  _335
REMARK  141  A    between atoms: _335  and  _336
REMARK  142  A    between atoms: _338  and  _340
REMARK  143  A    between atoms: _340  and  _341
REMARK  144  A    between atoms: _340  and  _343
REMARK  145  A    between atoms: _343  and  _344
REMARK  146  A    between atoms: _344  and  _345
REMARK  147  A    between atoms: _347  and  _349
REMARK  148  A    between atoms: _349  and  _350
REMARK  149  A    between atoms: _349  and  _352
REMARK  150  A    between atoms: _352  and  _353
REMARK  151  A    between atoms: _358  and  _360
REMARK  152  A    between atoms: _360  and  _361
REMARK  153  A    between atoms: _360  and  _363
REMARK  154  A    between atoms: _363  and  _364
REMARK  155  A    between atoms: _364  and  _365
REMARK  156  A    between atoms: _367  and  _369
REMARK  157  A    between atoms: _369  and  _370
REMARK  158  A    between atoms: _369  and  _372
REMARK  159  A    between atoms: _372  and  _373
REMARK  160  A    between atoms: _376  and  _378
REMARK  161  A    between atoms: _378  and  _379
REMARK  162  A    between atoms: _378  and  _381
REMARK  163  A    between atoms: _381  and  _382
REMARK  164  A    between atoms: _384  and  _386
REMARK  165  A    between atoms: _386  and  _387
REMARK  166  A    between atoms: _386  and  _389
REMARK  167  A    between atoms: _389  and  _390
REMARK  168  A    between atoms: _390  and  _391
REMARK  169  A    between atoms: _391  and  _392
REMARK  170  A    between atoms: _392  and  _393
REMARK  171  A    between atoms: _397  and  _399
REMARK  172  A    between atoms: _399  and  _400
REMARK  173  A    between atoms: _399  and  _402
REMARK  174  A    between atoms: _402  and  _403
REMARK  175  A    between atoms: _406  and  _408
REMARK  176  A    between atoms: _408  and  _409
REMARK  177  A    between atoms: _408  and  _411
REMARK  178  A    between atoms: _411  and  _412
REMARK  179  A    between atoms: _412  and  _413
REMARK  180  A    between atoms: _416  and  _418
REMARK  181  A    between atoms: _418  and  _419
REMARK  182  A    between atoms: _422  and  _424
REMARK  183  A    between atoms: _424  and  _425
REMARK  184  A    between atoms: _424  and  _427
REMARK  185  A    between atoms: _430  and  _432
REMARK  186  A    between atoms: _432  and  _433
REMARK  187  A    between atoms: _432  and  _435
REMARK  188  A    between atoms: _435  and  _436
REMARK  189  A    between atoms: _438  and  _440
REMARK  190  A    between atoms: _440  and  _441
REMARK  191  A    between atoms: _443  and  _445
REMARK  192  A    between atoms: _445  and  _446
REMARK  193  A    between atoms: _445  and  _448
REMARK  194  A    between atoms: _448  and  _449
REMARK  195  A    between atoms: _454  and  _456
REMARK  196  A    between atoms: _456  and  _457
REMARK  197  A    between atoms: _456  and  _459
REMARK  198  A    between atoms: _459  and  _460
REMARK  199  A    between atoms: _465  and  _466
REMARK  200  A    between atoms: _468  and  _470
REMARK  201  A    between atoms: _470  and  _471
REMARK  202  A    between atoms: _470  and  _473
REMARK  203  A    between atoms: _475  and  _477
REMARK  204  A    between atoms: _477  and  _478
REMARK  205  A    between atoms: _477  and  _480
REMARK  206  A    between atoms: _480  and  _481
REMARK  207  A    between atoms: _484  and  _486
REMARK  208  A    between atoms: _486  and  _487
REMARK  209  A    between atoms: _486  and  _489
REMARK  210  A    between atoms: _489  and  _490
REMARK  211  A    between atoms: _493  and  _495
REMARK  212  A    between atoms: _495  and  _496
REMARK  213  A    between atoms: _495  and  _498
REMARK  214  A    between atoms: _498  and  _499
REMARK  215  A    between atoms: _499  and  _500
REMARK  216  A    between atoms: _500  and  _501
REMARK  217  A    between atoms: _501  and  _502
REMARK  218  A    between atoms: _506  and  _508
REMARK  219  A    between atoms: _508  and  _509
REMARK  220  A    between atoms: _508  and  _511
REMARK  221  A    between atoms: _511  and  _512
REMARK  222  A    between atoms: _512  and  _513
REMARK  223  A    between atoms: _513  and  _514
REMARK  224  A    between atoms: _514  and  _515
REMARK  225  A    between atoms: _519  and  _521
REMARK  226  A    between atoms: _521  and  _522
REMARK  227  A    between atoms: _521  and  _524
REMARK  228  A    between atoms: _524  and  _525
REMARK  229  A    between atoms: _525  and  _526
REMARK  230  A    between atoms: _526  and  _527
REMARK  231  A    between atoms: _536  and  _538
REMARK  232  A    between atoms: _538  and  _539
REMARK  233  A    between atoms: _538  and  _541
REMARK  234  A    between atoms: _541  and  _542
REMARK  235  A    between atoms: _545  and  _547
REMARK  236  A    between atoms: _547  and  _548
REMARK  237  A    between atoms: _551  and  _553
REMARK  238  A    between atoms: _553  and  _554
REMARK  239  A    between atoms: _553  and  _556
REMARK  240  A    between atoms: _556  and  _557
REMARK  241  A    between atoms: _557  and  _558
REMARK                            x       y       z     vdW  Elec       q    Type
REMARK                         _______ _______ _______ _____ _____    ______ ____
ROOT
ATOM      1  O   HOH     1     -11.303  -1.129  39.654  0.00  0.00    +0.000 OA
ENDROOT
TORSDOF 0
REMARK  Name = ../refined-set-2016/3ccw/3ccw_pocket.pdb
REMARK  241 active torsions:
REMARK  status: ('A' for Active; 'I' for Inactive)
REMARK    1  A    between atoms: _1  and  _3
REMARK    2  A    between atoms: _3  and  _4
REMARK    3  A    between atoms: _3  and  _6
REMARK    4  A    between atoms: _6  and  _7
REMARK    5  A    between atoms: _10  and  _12
REMARK    6  A    between atoms: _12  and  _13
REMARK    7  A    between atoms: _12  and  _15
REMARK    8  A    between atoms: _15  and  _16
REMARK    9  A    between atoms: _16  and  _17
REMARK   10  A    between atoms: _20  and  _22
REMARK   11  A    between atoms: _22  and  _23
REMARK   12  A    between atoms: _25  and  _27
REMARK   13  A    between atoms: _27  and  _28
REMARK   14  A    between atoms: _27  and  _30
REMARK   15  A    between atoms: _32  and  _34
REMARK   16  A    between atoms: _34  and  _35
REMARK   17  A    between atoms: _34  and  _37
REMARK   18  A    between atoms: _37  and  _38
REMARK   19  A    between atoms: _41  and  _43
REMARK   20  A    between atoms: _43  and  _44
REMARK   21  A    between atoms: _43  and  _46
REMARK   22  A    between atoms: _49  and  _51
REMARK   23  A    between atoms: _51  and  _52
REMARK   24  A    between atoms: _55  and  _57
REMARK   25  A    between atoms: _57  and  _58
REMARK   26  A    between atoms: _57  and  _60
REMARK   27  A    between atoms: _60  and  _61
REMARK   28  A    between atoms: _63  and  _65
REMARK   29  A    between atoms: _65  and  _66
REMARK   30  A    between atoms: _65  and  _68
REMARK   31  A    between atoms: _68  and  _69
REMARK   32  A    between atoms: _72  and  _74
REMARK   33  A    between atoms: _74  and  _75
REMARK   34  A    between atoms: _74  and  _77
REMARK   35  A    between atoms: _77  and  _78
REMARK   36  A    between atoms: _83  and  _85
REMARK   37  A    between atoms: _85  and  _86
REMARK   38  A    between atoms: _85  and  _88
REMARK   39  A    between atoms: _88  and  _89
REMARK   40  A    between atoms: _89  and  _90
REMARK   41  A    between atoms: _90  and  _91
REMARK   42  A    between atoms: _100  and  _102
REMARK   43  A    between atoms: _102  and  _103
REMARK   44  A    between atoms: _105  and  _107
REMARK   45  A    between atoms: _107  and  _108
REMARK   46  A    between atoms: _107  and  _110
REMARK   47  A    between atoms: _113  and  _115
REMARK   48  A    between atoms: _115  and  _116
REMARK   49  A    between atoms: _115  and  _118
REMARK   50  A    between atoms: _118  and  _119
REMARK   51  A    between atoms: _122  and  _124
REMARK   52  A    between atoms: _124  and  _125
REMARK   53  A    between atoms: _124  and  _127
REMARK   54  A    between atoms: _127  and  _128
REMARK   55  A    between atoms: _128  and  _129
REMARK   56  A    between atoms: _129  and  _130
REMARK   57  A    between atoms: _130  and  _131
REMARK   58  A    between atoms: _135  and  _137
REMARK   59  A    between atoms: _137  and  _138
REMARK   60  A    between atoms: _137  and  _140
REMARK   61  A    between atoms: _140  and  _141
REMARK   62  A    between atoms: _146  and  _148
REMARK   63  A    between atoms: _148  and  _149
REMARK   64  A    between atoms: _148  and  _151
REMARK   65  A    between atoms: _151  and  _152
REMARK   66  A    between atoms: _157  and  _159
REMARK   67  A    between atoms: _159  and  _160
REMARK   68  A    between atoms: _163  and  _165
REMARK   69  A    between atoms: _165  and  _166
REMARK   70  A    between atoms: _165  and  _168
REMARK   71  A    between atoms: _168  and  _169
REMARK   72  A    between atoms: _174  and  _176
REMARK   73  A    between atoms: _176  and  _177
REMARK   74  A    between atoms: _180  and  _182
REMARK   75  A    between atoms: _182  and  _183
REMARK   76  A    between atoms: _186  and  _188
REMARK   77  A    between atoms: _188  and  _189
REMARK   78  A    between atoms: _188  and  _191
REMARK   79  A    between atoms: _191  and  _192
REMARK   80  A    between atoms: _197  and  _199
REMARK   81  A    between atoms: _199  and  _200
REMARK   82  A    between atoms: _199  and  _202
REMARK   83  A    between atoms: _202  and  _203
REMARK   84  A    between atoms: _206  and  _208
REMARK   85  A    between atoms: _208  and  _209
REMARK   86  A    between atoms: _211  and  _213
REMARK   87  A    between atoms: _213  and  _214
REMARK   88  A    between atoms: _213  and  _216
REMARK   89  A    between atoms: _216  and  _217
REMARK   90  A    between atoms: _217  and  _218
REMARK   91  A    between atoms: _221  and  _223
REMARK   92  A    between atoms: _223  and  _224
REMARK   93  A    between atoms: _223  and  _226
REMARK   94  A    between atoms: _226  and  _227
REMARK   95  A    between atoms: _230  and  _232
REMARK   96  A    between atoms: _232  and  _233
REMARK   97  A    between atoms: _232  and  _235
REMARK   98  A    between atoms: _235  and  _236
REMARK   99  A    between atoms: _238  and  _240
REMARK  100  A    between atoms: _240  and  _241
REMARK  101  A    between atoms: _240  and  _243
REMARK  102  A    between atoms: _243  and  _244
REMARK  103  A    between atoms: _247  and  _249
REMARK  104  A    between atoms: _249  and  _250
REMARK  105  A    between atoms: _249  and  _252
REMARK  106  A    between atoms: _252  and  _253
REMARK  107  A    between atoms: _253  and  _254
REMARK  108  A    between atoms: _256  and  _258
REMARK  109  A    between atoms: _258  and  _259
REMARK  110  A    between atoms: _262  and  _264
REMARK  111  A    between atoms: _264  and  _265
REMARK  112  A    between atoms: _268  and  _270
REMARK  113  A    between atoms: _270  and  _271
REMARK  114  A    between atoms: _270  and  _273
REMARK  115  A    between atoms: _273  and  _274
REMARK  116  A    between atoms: _277  and  _279
REMARK  117  A    between atoms: _279  and  _280
REMARK  118  A    between atoms: _279  and  _282
REMARK  119  A    between atoms: _282  and  _283
REMARK  120  A    between atoms: _288  and  _290
REMARK  121  A    between atoms: _290  and  _291
REMARK  122  A    between atoms: _290  and  _293
REMARK  123  A    between atoms: _293  and  _294
REMARK  124  A    between atoms: _294  and  _295
REMARK  125  A    between atoms: _298  and  _300
REMARK  126  A    between atoms: _300  and  _301
REMARK  127  A    between atoms: _300  and  _303
REMARK  128  A    between atoms: _303  and  _304
REMARK  129  A    between atoms: _307  and  _309
REMARK  130  A    between atoms: _309  and  _310
REMARK  131  A    between atoms: _309  and  _312
REMARK  132  A    between atoms: _312  and  _313
REMARK  133  A    between atoms: _313  and  _314
REMARK  134  A    between atoms: _314  and  _315
REMARK  135  A    between atoms: _324  and  _326
REMARK  136  A    between atoms: _326  and  _327
REMARK  137  A    between atoms: _329  and  _331
REMARK  138  A    between atoms: _331  and  _332
REMARK  139  A    between atoms: _331  and  _334
REMARK  140  A    between atoms: _334  and  _335
REMARK  141  A    between atoms: _335  and  _336
REMARK  142  A    between atoms: _338  and  _340
REMARK  143  A    between atoms: _340  and  _341
REMARK  144  A    between atoms: _340  and  _343
REMARK  145  A    between atoms: _343  and  _344
REMARK  146  A    between atoms: _344  and  _345
REMARK  147  A    between atoms: _347  and  _349
REMARK  148  A    between atoms: _349  and  _350
REMARK  149  A    between atoms: _349  and  _352
REMARK  150  A    between atoms: _352  and  _353
REMARK  151  A    between atoms: _358  and  _360
REMARK  152  A    between atoms: _360  and  _361
REMARK  153  A    between atoms: _360  and  _363
REMARK  154  A    between atoms: _363  and  _364
REMARK  155  A    between atoms: _364  and  _365
REMARK  156  A    between atoms: _367  and  _369
REMARK  157  A    between atoms: _369  and  _370
REMARK  158  A    between atoms: _369  and  _372
REMARK  159  A    between atoms: _372  and  _373
REMARK  160  A    between atoms: _376  and  _378
REMARK  161  A    between atoms: _378  and  _379
REMARK  162  A    between atoms: _378  and  _381
REMARK  163  A    between atoms: _381  and  _382
REMARK  164  A    between atoms: _384  and  _386
REMARK  165  A    between atoms: _386  and  _387
REMARK  166  A    between atoms: _386  and  _389
REMARK  167  A    between atoms: _389  and  _390
REMARK  168  A    between atoms: _390  and  _391
REMARK  169  A    between atoms: _391  and  _392
REMARK  170  A    between atoms: _392  and  _393
REMARK  171  A    between atoms: _397  and  _399
REMARK  172  A    between atoms: _399  and  _400
REMARK  173  A    between atoms: _399  and  _402
REMARK  174  A    between atoms: _402  and  _403
REMARK  175  A    between atoms: _406  and  _408
REMARK  176  A    between atoms: _408  and  _409
REMARK  177  A    between atoms: _408  and  _411
REMARK  178  A    between atoms: _411  and  _412
REMARK  179  A    between atoms: _412  and  _413
REMARK  180  A    between atoms: _416  and  _418
REMARK  181  A    between atoms: _418  and  _419
REMARK  182  A    between atoms: _422  and  _424
REMARK  183  A    between atoms: _424  and  _425
REMARK  184  A    between atoms: _424  and  _427
REMARK  185  A    between atoms: _430  and  _432
REMARK  186  A    between atoms: _432  and  _433
REMARK  187  A    between atoms: _432  and  _435
REMARK  188  A    between atoms: _435  and  _436
REMARK  189  A    between atoms: _438  and  _440
REMARK  190  A    between atoms: _440  and  _441
REMARK  191  A    between atoms: _443  and  _445
REMARK  192  A    between atoms: _445  and  _446
REMARK  193  A    between atoms: _445  and  _448
REMARK  194  A    between atoms: _448  and  _449
REMARK  195  A    between atoms: _454  and  _456
REMARK  196  A    between atoms: _456  and  _457
REMARK  197  A    between atoms: _456  and  _459
REMARK  198  A    between atoms: _459  and  _460
REMARK  199  A    between atoms: _465  and  _466
REMARK  200  A    between atoms: _468  and  _470
REMARK  201  A    between atoms: _470  and  _471
REMARK  202  A    between atoms: _470  and  _473
REMARK  203  A    between atoms: _475  and  _477
REMARK  204  A    between atoms: _477  and  _478
REMARK  205  A    between atoms: _477  and  _480
REMARK  206  A    between atoms: _480  and  _481
REMARK  207  A    between atoms: _484  and  _486
REMARK  208  A    between atoms: _486  and  _487
REMARK  209  A    between atoms: _486  and  _489
REMARK  210  A    between atoms: _489  and  _490
REMARK  211  A    between atoms: _493  and  _495
REMARK  212  A    between atoms: _495  and  _496
REMARK  213  A    between atoms: _495  and  _498
REMARK  214  A    between atoms: _498  and  _499
REMARK  215  A    between atoms: _499  and  _500
REMARK  216  A    between atoms: _500  and  _501
REMARK  217  A    between atoms: _501  and  _502
REMARK  218  A    between atoms: _506  and  _508
REMARK  219  A    between atoms: _508  and  _509
REMARK  220  A    between atoms: _508  and  _511
REMARK  221  A    between atoms: _511  and  _512
REMARK  222  A    between atoms: _512  and  _513
REMARK  223  A    between atoms: _513  and  _514
REMARK  224  A    between atoms: _514  and  _515
REMARK  225  A    between atoms: _519  and  _521
REMARK  226  A    between atoms: _521  and  _522
REMARK  227  A    between atoms: _521  and  _524
REMARK  228  A    between atoms: _524  and  _525
REMARK  229  A    between atoms: _525  and  _526
REMARK  230  A    between atoms: _526  and  _527
REMARK  231  A    between atoms: _536  and  _538
REMARK  232  A    between atoms: _538  and  _539
REMARK  233  A    between atoms: _538  and  _541
REMARK  234  A    between atoms: _541  and  _542
REMARK  235  A    between atoms: _545  and  _547
REMARK  236  A    between atoms: _547  and  _548
REMARK  237  A    between atoms: _551  and  _553
REMARK  238  A    between atoms: _553  and  _554
REMARK  239  A    between atoms: _553  and  _556
REMARK  240  A    between atoms: _556  and  _557
REMARK  241  A    between atoms: _557  and  _558
REMARK                            x       y       z     vdW  Elec       q    Type
REMARK                         _______ _______ _______ _____ _____    ______ ____
ROOT
ATOM      1  O   HOH     1     -17.637  17.064  46.308  0.00  0.00    +0.000 OA
ENDROOT
TORSDOF 0
REMARK  Name = ../refined-set-2016/3ccw/3ccw_pocket.pdb
REMARK  241 active torsions:
REMARK  status: ('A' for Active; 'I' for Inactive)
REMARK    1  A    between atoms: _1  and  _3
REMARK    2  A    between atoms: _3  and  _4
REMARK    3  A    between atoms: _3  and  _6
REMARK    4  A    between atoms: _6  and  _7
REMARK    5  A    between atoms: _10  and  _12
REMARK    6  A    between atoms: _12  and  _13
REMARK    7  A    between atoms: _12  and  _15
REMARK    8  A    between atoms: _15  and  _16
REMARK    9  A    between atoms: _16  and  _17
REMARK   10  A    between atoms: _20  and  _22
REMARK   11  A    between atoms: _22  and  _23
REMARK   12  A    between atoms: _25  and  _27
REMARK   13  A    between atoms: _27  and  _28
REMARK   14  A    between atoms: _27  and  _30
REMARK   15  A    between atoms: _32  and  _34
REMARK   16  A    between atoms: _34  and  _35
REMARK   17  A    between atoms: _34  and  _37
REMARK   18  A    between atoms: _37  and  _38
REMARK   19  A    between atoms: _41  and  _43
REMARK   20  A    between atoms: _43  and  _44
REMARK   21  A    between atoms: _43  and  _46
REMARK   22  A    between atoms: _49  and  _51
REMARK   23  A    between atoms: _51  and  _52
REMARK   24  A    between atoms: _55  and  _57
REMARK   25  A    between atoms: _57  and  _58
REMARK   26  A    between atoms: _57  and  _60
REMARK   27  A    between atoms: _60  and  _61
REMARK   28  A    between atoms: _63  and  _65
REMARK   29  A    between atoms: _65  and  _66
REMARK   30  A    between atoms: _65  and  _68
REMARK   31  A    between atoms: _68  and  _69
REMARK   32  A    between atoms: _72  and  _74
REMARK   33  A    between atoms: _74  and  _75
REMARK   34  A    between atoms: _74  and  _77
REMARK   35  A    between atoms: _77  and  _78
REMARK   36  A    between atoms: _83  and  _85
REMARK   37  A    between atoms: _85  and  _86
REMARK   38  A    between atoms: _85  and  _88
REMARK   39  A    between atoms: _88  and  _89
REMARK   40  A    between atoms: _89  and  _90
REMARK   41  A    between atoms: _90  and  _91
REMARK   42  A    between atoms: _100  and  _102
REMARK   43  A    between atoms: _102  and  _103
REMARK   44  A    between atoms: _105  and  _107
REMARK   45  A    between atoms: _107  and  _108
REMARK   46  A    between atoms: _107  and  _110
REMARK   47  A    between atoms: _113  and  _115
REMARK   48  A    between atoms: _115  and  _116
REMARK   49  A    between atoms: _115  and  _118
REMARK   50  A    between atoms: _118  and  _119
REMARK   51  A    between atoms: _122  and  _124
REMARK   52  A    between atoms: _124  and  _125
REMARK   53  A    between atoms: _124  and  _127
REMARK   54  A    between atoms: _127  and  _128
REMARK   55  A    between atoms: _128  and  _129
REMARK   56  A    between atoms: _129  and  _130
REMARK   57  A    between atoms: _130  and  _131
REMARK   58  A    between atoms: _135  and  _137
REMARK   59  A    between atoms: _137  and  _138
REMARK   60  A    between atoms: _137  and  _140
REMARK   61  A    between atoms: _140  and  _141
REMARK   62  A    between atoms: _146  and  _148
REMARK   63  A    between atoms: _148  and  _149
REMARK   64  A    between atoms: _148  and  _151
REMARK   65  A    between atoms: _151  and  _152
REMARK   66  A    between atoms: _157  and  _159
REMARK   67  A    between atoms: _159  and  _160
REMARK   68  A    between atoms: _163  and  _165
REMARK   69  A    between atoms: _165  and  _166
REMARK   70  A    between atoms: _165  and  _168
REMARK   71  A    between atoms: _168  and  _169
REMARK   72  A    between atoms: _174  and  _176
REMARK   73  A    between atoms: _176  and  _177
REMARK   74  A    between atoms: _180  and  _182
REMARK   75  A    between atoms: _182  and  _183
REMARK   76  A    between atoms: _186  and  _188
REMARK   77  A    between atoms: _188  and  _189
REMARK   78  A    between atoms: _188  and  _191
REMARK   79  A    between atoms: _191  and  _192
REMARK   80  A    between atoms: _197  and  _199
REMARK   81  A    between atoms: _199  and  _200
REMARK   82  A    between atoms: _199  and  _202
REMARK   83  A    between atoms: _202  and  _203
REMARK   84  A    between atoms: _206  and  _208
REMARK   85  A    between atoms: _208  and  _209
REMARK   86  A    between atoms: _211  and  _213
REMARK   87  A    between atoms: _213  and  _214
REMARK   88  A    between atoms: _213  and  _216
REMARK   89  A    between atoms: _216  and  _217
REMARK   90  A    between atoms: _217  and  _218
REMARK   91  A    between atoms: _221  and  _223
REMARK   92  A    between atoms: _223  and  _224
REMARK   93  A    between atoms: _223  and  _226
REMARK   94  A    between atoms: _226  and  _227
REMARK   95  A    between atoms: _230  and  _232
REMARK   96  A    between atoms: _232  and  _233
REMARK   97  A    between atoms: _232  and  _235
REMARK   98  A    between atoms: _235  and  _236
REMARK   99  A    between atoms: _238  and  _240
REMARK  100  A    between atoms: _240  and  _241
REMARK  101  A    between atoms: _240  and  _243
REMARK  102  A    between atoms: _243  and  _244
REMARK  103  A    between atoms: _247  and  _249
REMARK  104  A    between atoms: _249  and  _250
REMARK  105  A    between atoms: _249  and  _252
REMARK  106  A    between atoms: _252  and  _253
REMARK  107  A    between atoms: _253  and  _254
REMARK  108  A    between atoms: _256  and  _258
REMARK  109  A    between atoms: _258  and  _259
REMARK  110  A    between atoms: _262  and  _264
REMARK  111  A    between atoms: _264  and  _265
REMARK  112  A    between atoms: _268  and  _270
REMARK  113  A    between atoms: _270  and  _271
REMARK  114  A    between atoms: _270  and  _273
REMARK  115  A    between atoms: _273  and  _274
REMARK  116  A    between atoms: _277  and  _279
REMARK  117  A    between atoms: _279  and  _280
REMARK  118  A    between atoms: _279  and  _282
REMARK  119  A    between atoms: _282  and  _283
REMARK  120  A    between atoms: _288  and  _290
REMARK  121  A    between atoms: _290  and  _291
REMARK  122  A    between atoms: _290  and  _293
REMARK  123  A    between atoms: _293  and  _294
REMARK  124  A    between atoms: _294  and  _295
REMARK  125  A    between atoms: _298  and  _300
REMARK  126  A    between atoms: _300  and  _301
REMARK  127  A    between atoms: _300  and  _303
REMARK  128  A    between atoms: _303  and  _304
REMARK  129  A    between atoms: _307  and  _309
REMARK  130  A    between atoms: _309  and  _310
REMARK  131  A    between atoms: _309  and  _312
REMARK  132  A    between atoms: _312  and  _313
REMARK  133  A    between atoms: _313  and  _314
REMARK  134  A    between atoms: _314  and  _315
REMARK  135  A    between atoms: _324  and  _326
REMARK  136  A    between atoms: _326  and  _327
REMARK  137  A    between atoms: _329  and  _331
REMARK  138  A    between atoms: _331  and  _332
REMARK  139  A    between atoms: _331  and  _334
REMARK  140  A    between atoms: _334  and  _335
REMARK  141  A    between atoms: _335  and  _336
REMARK  142  A    between atoms: _338  and  _340
REMARK  143  A    between atoms: _340  and  _341
REMARK  144  A    between atoms: _340  and  _343
REMARK  145  A    between atoms: _343  and  _344
REMARK  146  A    between atoms: _344  and  _345
REMARK  147  A    between atoms: _347  and  _349
REMARK  148  A    between atoms: _349  and  _350
REMARK  149  A    between atoms: _349  and  _352
REMARK  150  A    between atoms: _352  and  _353
REMARK  151  A    between atoms: _358  and  _360
REMARK  152  A    between atoms: _360  and  _361
REMARK  153  A    between atoms: _360  and  _363
REMARK  154  A    between atoms: _363  and  _364
REMARK  155  A    between atoms: _364  and  _365
REMARK  156  A    between atoms: _367  and  _369
REMARK  157  A    between atoms: _369  and  _370
REMARK  158  A    between atoms: _369  and  _372
REMARK  159  A    between atoms: _372  and  _373
REMARK  160  A    between atoms: _376  and  _378
REMARK  161  A    between atoms: _378  and  _379
REMARK  162  A    between atoms: _378  and  _381
REMARK  163  A    between atoms: _381  and  _382
REMARK  164  A    between atoms: _384  and  _386
REMARK  165  A    between atoms: _386  and  _387
REMARK  166  A    between atoms: _386  and  _389
REMARK  167  A    between atoms: _389  and  _390
REMARK  168  A    between atoms: _390  and  _391
REMARK  169  A    between atoms: _391  and  _392
REMARK  170  A    between atoms: _392  and  _393
REMARK  171  A    between atoms: _397  and  _399
REMARK  172  A    between atoms: _399  and  _400
REMARK  173  A    between atoms: _399  and  _402
REMARK  174  A    between atoms: _402  and  _403
REMARK  175  A    between atoms: _406  and  _408
REMARK  176  A    between atoms: _408  and  _409
REMARK  177  A    between atoms: _408  and  _411
REMARK  178  A    between atoms: _411  and  _412
REMARK  179  A    between atoms: _412  and  _413
REMARK  180  A    between atoms: _416  and  _418
REMARK  181  A    between atoms: _418  and  _419
REMARK  182  A    between atoms: _422  and  _424
REMARK  183  A    between atoms: _424  and  _425
REMARK  184  A    between atoms: _424  and  _427
REMARK  185  A    between atoms: _430  and  _432
REMARK  186  A    between atoms: _432  and  _433
REMARK  187  A    between atoms: _432  and  _435
REMARK  188  A    between atoms: _435  and  _436
REMARK  189  A    between atoms: _438  and  _440
REMARK  190  A    between atoms: _440  and  _441
REMARK  191  A    between atoms: _443  and  _445
REMARK  192  A    between atoms: _445  and  _446
REMARK  193  A    between atoms: _445  and  _448
REMARK  194  A    between atoms: _448  and  _449
REMARK  195  A    between atoms: _454  and  _456
REMARK  196  A    between atoms: _456  and  _457
REMARK  197  A    between atoms: _456  and  _459
REMARK  198  A    between atoms: _459  and  _460
REMARK  199  A    between atoms: _465  and  _466
REMARK  200  A    between atoms: _468  and  _470
REMARK  201  A    between atoms: _470  and  _471
REMARK  202  A    between atoms: _470  and  _473
REMARK  203  A    between atoms: _475  and  _477
REMARK  204  A    between atoms: _477  and  _478
REMARK  205  A    between atoms: _477  and  _480
REMARK  206  A    between atoms: _480  and  _481
REMARK  207  A    between atoms: _484  and  _486
REMARK  208  A    between atoms: _486  and  _487
REMARK  209  A    between atoms: _486  and  _489
REMARK  210  A    between atoms: _489  and  _490
REMARK  211  A    between atoms: _493  and  _495
REMARK  212  A    between atoms: _495  and  _496
REMARK  213  A    between atoms: _495  and  _498
REMARK  214  A    between atoms: _498  and  _499
REMARK  215  A    between atoms: _499  and  _500
REMARK  216  A    between atoms: _500  and  _501
REMARK  217  A    between atoms: _501  and  _502
REMARK  218  A    between atoms: _506  and  _508
REMARK  219  A    between atoms: _508  and  _509
REMARK  220  A    between atoms: _508  and  _511
REMARK  221  A    between atoms: _511  and  _512
REMARK  222  A    between atoms: _512  and  _513
REMARK  223  A    between atoms: _513  and  _514
REMARK  224  A    between atoms: _514  and  _515
REMARK  225  A    between atoms: _519  and  _521
REMARK  226  A    between atoms: _521  and  _522
REMARK  227  A    between atoms: _521  and  _524
REMARK  228  A    between atoms: _524  and  _525
REMARK  229  A    between atoms: _525  and  _526
REMARK  230  A    between atoms: _526  and  _527
REMARK  231  A    between atoms: _536  and  _538
REMARK  232  A    between atoms: _538  and  _539
REMARK  233  A    between atoms: _538  and  _541
REMARK  234  A    between atoms: _541  and  _542
REMARK  235  A    between atoms: _545  and  _547
REMARK  236  A    between atoms: _547  and  _548
REMARK  237  A    between atoms: _551  and  _553
REMARK  238  A    between atoms: _553  and  _554
REMARK  239  A    between atoms: _553  and  _556
REMARK  240  A    between atoms: _556  and  _557
REMARK  241  A    between atoms: _557  and  _558
REMARK                            x       y       z     vdW  Elec       q    Type
REMARK                         _______ _______ _______ _____ _____    ______ ____
ROOT
ATOM      1  O   HOH     1      -8.108  -0.883  42.144  0.00  0.00    +0.000 OA
ENDROOT
TORSDOF 0
REMARK  Name = ../refined-set-2016/3ccw/3ccw_pocket.pdb
REMARK  241 active torsions:
REMARK  status: ('A' for Active; 'I' for Inactive)
REMARK    1  A    between atoms: _1  and  _3
REMARK    2  A    between atoms: _3  and  _4
REMARK    3  A    between atoms: _3  and  _6
REMARK    4  A    between atoms: _6  and  _7
REMARK    5  A    between atoms: _10  and  _12
REMARK    6  A    between atoms: _12  and  _13
REMARK    7  A    between atoms: _12  and  _15
REMARK    8  A    between atoms: _15  and  _16
REMARK    9  A    between atoms: _16  and  _17
REMARK   10  A    between atoms: _20  and  _22
REMARK   11  A    between atoms: _22  and  _23
REMARK   12  A    between atoms: _25  and  _27
REMARK   13  A    between atoms: _27  and  _28
REMARK   14  A    between atoms: _27  and  _30
REMARK   15  A    between atoms: _32  and  _34
REMARK   16  A    between atoms: _34  and  _35
REMARK   17  A    between atoms: _34  and  _37
REMARK   18  A    between atoms: _37  and  _38
REMARK   19  A    between atoms: _41  and  _43
REMARK   20  A    between atoms: _43  and  _44
REMARK   21  A    between atoms: _43  and  _46
REMARK   22  A    between atoms: _49  and  _51
REMARK   23  A    between atoms: _51  and  _52
REMARK   24  A    between atoms: _55  and  _57
REMARK   25  A    between atoms: _57  and  _58
REMARK   26  A    between atoms: _57  and  _60
REMARK   27  A    between atoms: _60  and  _61
REMARK   28  A    between atoms: _63  and  _65
REMARK   29  A    between atoms: _65  and  _66
REMARK   30  A    between atoms: _65  and  _68
REMARK   31  A    between atoms: _68  and  _69
REMARK   32  A    between atoms: _72  and  _74
REMARK   33  A    between atoms: _74  and  _75
REMARK   34  A    between atoms: _74  and  _77
REMARK   35  A    between atoms: _77  and  _78
REMARK   36  A    between atoms: _83  and  _85
REMARK   37  A    between atoms: _85  and  _86
REMARK   38  A    between atoms: _85  and  _88
REMARK   39  A    between atoms: _88  and  _89
REMARK   40  A    between atoms: _89  and  _90
REMARK   41  A    between atoms: _90  and  _91
REMARK   42  A    between atoms: _100  and  _102
REMARK   43  A    between atoms: _102  and  _103
REMARK   44  A    between atoms: _105  and  _107
REMARK   45  A    between atoms: _107  and  _108
REMARK   46  A    between atoms: _107  and  _110
REMARK   47  A    between atoms: _113  and  _115
REMARK   48  A    between atoms: _115  and  _116
REMARK   49  A    between atoms: _115  and  _118
REMARK   50  A    between atoms: _118  and  _119
REMARK   51  A    between atoms: _122  and  _124
REMARK   52  A    between atoms: _124  and  _125
REMARK   53  A    between atoms: _124  and  _127
REMARK   54  A    between atoms: _127  and  _128
REMARK   55  A    between atoms: _128  and  _129
REMARK   56  A    between atoms: _129  and  _130
REMARK   57  A    between atoms: _130  and  _131
REMARK   58  A    between atoms: _135  and  _137
REMARK   59  A    between atoms: _137  and  _138
REMARK   60  A    between atoms: _137  and  _140
REMARK   61  A    between atoms: _140  and  _141
REMARK   62  A    between atoms: _146  and  _148
REMARK   63  A    between atoms: _148  and  _149
REMARK   64  A    between atoms: _148  and  _151
REMARK   65  A    between atoms: _151  and  _152
REMARK   66  A    between atoms: _157  and  _159
REMARK   67  A    between atoms: _159  and  _160
REMARK   68  A    between atoms: _163  and  _165
REMARK   69  A    between atoms: _165  and  _166
REMARK   70  A    between atoms: _165  and  _168
REMARK   71  A    between atoms: _168  and  _169
REMARK   72  A    between atoms: _174  and  _176
REMARK   73  A    between atoms: _176  and  _177
REMARK   74  A    between atoms: _180  and  _182
REMARK   75  A    between atoms: _182  and  _183
REMARK   76  A    between atoms: _186  and  _188
REMARK   77  A    between atoms: _188  and  _189
REMARK   78  A    between atoms: _188  and  _191
REMARK   79  A    between atoms: _191  and  _192
REMARK   80  A    between atoms: _197  and  _199
REMARK   81  A    between atoms: _199  and  _200
REMARK   82  A    between atoms: _199  and  _202
REMARK   83  A    between atoms: _202  and  _203
REMARK   84  A    between atoms: _206  and  _208
REMARK   85  A    between atoms: _208  and  _209
REMARK   86  A    between atoms: _211  and  _213
REMARK   87  A    between atoms: _213  and  _214
REMARK   88  A    between atoms: _213  and  _216
REMARK   89  A    between atoms: _216  and  _217
REMARK   90  A    between atoms: _217  and  _218
REMARK   91  A    between atoms: _221  and  _223
REMARK   92  A    between atoms: _223  and  _224
REMARK   93  A    between atoms: _223  and  _226
REMARK   94  A    between atoms: _226  and  _227
REMARK   95  A    between atoms: _230  and  _232
REMARK   96  A    between atoms: _232  and  _233
REMARK   97  A    between atoms: _232  and  _235
REMARK   98  A    between atoms: _235  and  _236
REMARK   99  A    between atoms: _238  and  _240
REMARK  100  A    between atoms: _240  and  _241
REMARK  101  A    between atoms: _240  and  _243
REMARK  102  A    between atoms: _243  and  _244
REMARK  103  A    between atoms: _247  and  _249
REMARK  104  A    between atoms: _249  and  _250
REMARK  105  A    between atoms: _249  and  _252
REMARK  106  A    between atoms: _252  and  _253
REMARK  107  A    between atoms: _253  and  _254
REMARK  108  A    between atoms: _256  and  _258
REMARK  109  A    between atoms: _258  and  _259
REMARK  110  A    between atoms: _262  and  _264
REMARK  111  A    between atoms: _264  and  _265
REMARK  112  A    between atoms: _268  and  _270
REMARK  113  A    between atoms: _270  and  _271
REMARK  114  A    between atoms: _270  and  _273
REMARK  115  A    between atoms: _273  and  _274
REMARK  116  A    between atoms: _277  and  _279
REMARK  117  A    between atoms: _279  and  _280
REMARK  118  A    between atoms: _279  and  _282
REMARK  119  A    between atoms: _282  and  _283
REMARK  120  A    between atoms: _288  and  _290
REMARK  121  A    between atoms: _290  and  _291
REMARK  122  A    between atoms: _290  and  _293
REMARK  123  A    between atoms: _293  and  _294
REMARK  124  A    between atoms: _294  and  _295
REMARK  125  A    between atoms: _298  and  _300
REMARK  126  A    between atoms: _300  and  _301
REMARK  127  A    between atoms: _300  and  _303
REMARK  128  A    between atoms: _303  and  _304
REMARK  129  A    between atoms: _307  and  _309
REMARK  130  A    between atoms: _309  and  _310
REMARK  131  A    between atoms: _309  and  _312
REMARK  132  A    between atoms: _312  and  _313
REMARK  133  A    between atoms: _313  and  _314
REMARK  134  A    between atoms: _314  and  _315
REMARK  135  A    between atoms: _324  and  _326
REMARK  136  A    between atoms: _326  and  _327
REMARK  137  A    between atoms: _329  and  _331
REMARK  138  A    between atoms: _331  and  _332
REMARK  139  A    between atoms: _331  and  _334
REMARK  140  A    between atoms: _334  and  _335
REMARK  141  A    between atoms: _335  and  _336
REMARK  142  A    between atoms: _338  and  _340
REMARK  143  A    between atoms: _340  and  _341
REMARK  144  A    between atoms: _340  and  _343
REMARK  145  A    between atoms: _343  and  _344
REMARK  146  A    between atoms: _344  and  _345
REMARK  147  A    between atoms: _347  and  _349
REMARK  148  A    between atoms: _349  and  _350
REMARK  149  A    between atoms: _349  and  _352
REMARK  150  A    between atoms: _352  and  _353
REMARK  151  A    between atoms: _358  and  _360
REMARK  152  A    between atoms: _360  and  _361
REMARK  153  A    between atoms: _360  and  _363
REMARK  154  A    between atoms: _363  and  _364
REMARK  155  A    between atoms: _364  and  _365
REMARK  156  A    between atoms: _367  and  _369
REMARK  157  A    between atoms: _369  and  _370
REMARK  158  A    between atoms: _369  and  _372
REMARK  159  A    between atoms: _372  and  _373
REMARK  160  A    between atoms: _376  and  _378
REMARK  161  A    between atoms: _378  and  _379
REMARK  162  A    between atoms: _378  and  _381
REMARK  163  A    between atoms: _381  and  _382
REMARK  164  A    between atoms: _384  and  _386
REMARK  165  A    between atoms: _386  and  _387
REMARK  166  A    between atoms: _386  and  _389
REMARK  167  A    between atoms: _389  and  _390
REMARK  168  A    between atoms: _390  and  _391
REMARK  169  A    between atoms: _391  and  _392
REMARK  170  A    between atoms: _392  and  _393
REMARK  171  A    between atoms: _397  and  _399
REMARK  172  A    between atoms: _399  and  _400
REMARK  173  A    between atoms: _399  and  _402
REMARK  174  A    between atoms: _402  and  _403
REMARK  175  A    between atoms: _406  and  _408
REMARK  176  A    between atoms: _408  and  _409
REMARK  177  A    between atoms: _408  and  _411
REMARK  178  A    between atoms: _411  and  _412
REMARK  179  A    between atoms: _412  and  _413
REMARK  180  A    between atoms: _416  and  _418
REMARK  181  A    between atoms: _418  and  _419
REMARK  182  A    between atoms: _422  and  _424
REMARK  183  A    between atoms: _424  and  _425
REMARK  184  A    between atoms: _424  and  _427
REMARK  185  A    between atoms: _430  and  _432
REMARK  186  A    between atoms: _432  and  _433
REMARK  187  A    between atoms: _432  and  _435
REMARK  188  A    between atoms: _435  and  _436
REMARK  189  A    between atoms: _438  and  _440
REMARK  190  A    between atoms: _440  and  _441
REMARK  191  A    between atoms: _443  and  _445
REMARK  192  A    between atoms: _445  and  _446
REMARK  193  A    between atoms: _445  and  _448
REMARK  194  A    between atoms: _448  and  _449
REMARK  195  A    between atoms: _454  and  _456
REMARK  196  A    between atoms: _456  and  _457
REMARK  197  A    between atoms: _456  and  _459
REMARK  198  A    between atoms: _459  and  _460
REMARK  199  A    between atoms: _465  and  _466
REMARK  200  A    between atoms: _468  and  _470
REMARK  201  A    between atoms: _470  and  _471
REMARK  202  A    between atoms: _470  and  _473
REMARK  203  A    between atoms: _475  and  _477
REMARK  204  A    between atoms: _477  and  _478
REMARK  205  A    between atoms: _477  and  _480
REMARK  206  A    between atoms: _480  and  _481
REMARK  207  A    between atoms: _484  and  _486
REMARK  208  A    between atoms: _486  and  _487
REMARK  209  A    between atoms: _486  and  _489
REMARK  210  A    between atoms: _489  and  _490
REMARK  211  A    between atoms: _493  and  _495
REMARK  212  A    between atoms: _495  and  _496
REMARK  213  A    between atoms: _495  and  _498
REMARK  214  A    between atoms: _498  and  _499
REMARK  215  A    between atoms: _499  and  _500
REMARK  216  A    between atoms: _500  and  _501
REMARK  217  A    between atoms: _501  and  _502
REMARK  218  A    between atoms: _506  and  _508
REMARK  219  A    between atoms: _508  and  _509
REMARK  220  A    between atoms: _508  and  _511
REMARK  221  A    between atoms: _511  and  _512
REMARK  222  A    between atoms: _512  and  _513
REMARK  223  A    between atoms: _513  and  _514
REMARK  224  A    between atoms: _514  and  _515
REMARK  225  A    between atoms: _519  and  _521
REMARK  226  A    between atoms: _521  and  _522
REMARK  227  A    between atoms: _521  and  _524
REMARK  228  A    between atoms: _524  and  _525
REMARK  229  A    between atoms: _525  and  _526
REMARK  230  A    between atoms: _526  and  _527
REMARK  231  A    between atoms: _536  and  _538
REMARK  232  A    between atoms: _538  and  _539
REMARK  233  A    between atoms: _538  and  _541
REMARK  234  A    between atoms: _541  and  _542
REMARK  235  A    between atoms: _545  and  _547
REMARK  236  A    between atoms: _547  and  _548
REMARK  237  A    between atoms: _551  and  _553
REMARK  238  A    between atoms: _553  and  _554
REMARK  239  A    between atoms: _553  and  _556
REMARK  240  A    between atoms: _556  and  _557
REMARK  241  A    between atoms: _557  and  _558
REMARK                            x       y       z     vdW  Elec       q    Type
REMARK                         _______ _______ _______ _____ _____    ______ ____
ROOT
ATOM      1  O   HOH     1     -23.733  10.633  49.387  0.00  0.00    +0.000 OA
ENDROOT
TORSDOF 0
REMARK  Name = ../refined-set-2016/3ccw/3ccw_pocket.pdb
REMARK  241 active torsions:
REMARK  status: ('A' for Active; 'I' for Inactive)
REMARK    1  A    between atoms: _1  and  _3
REMARK    2  A    between atoms: _3  and  _4
REMARK    3  A    between atoms: _3  and  _6
REMARK    4  A    between atoms: _6  and  _7
REMARK    5  A    between atoms: _10  and  _12
REMARK    6  A    between atoms: _12  and  _13
REMARK    7  A    between atoms: _12  and  _15
REMARK    8  A    between atoms: _15  and  _16
REMARK    9  A    between atoms: _16  and  _17
REMARK   10  A    between atoms: _20  and  _22
REMARK   11  A    between atoms: _22  and  _23
REMARK   12  A    between atoms: _25  and  _27
REMARK   13  A    between atoms: _27  and  _28
REMARK   14  A    between atoms: _27  and  _30
REMARK   15  A    between atoms: _32  and  _34
REMARK   16  A    between atoms: _34  and  _35
REMARK   17  A    between atoms: _34  and  _37
REMARK   18  A    between atoms: _37  and  _38
REMARK   19  A    between atoms: _41  and  _43
REMARK   20  A    between atoms: _43  and  _44
REMARK   21  A    between atoms: _43  and  _46
REMARK   22  A    between atoms: _49  and  _51
REMARK   23  A    between atoms: _51  and  _52
REMARK   24  A    between atoms: _55  and  _57
REMARK   25  A    between atoms: _57  and  _58
REMARK   26  A    between atoms: _57  and  _60
REMARK   27  A    between atoms: _60  and  _61
REMARK   28  A    between atoms: _63  and  _65
REMARK   29  A    between atoms: _65  and  _66
REMARK   30  A    between atoms: _65  and  _68
REMARK   31  A    between atoms: _68  and  _69
REMARK   32  A    between atoms: _72  and  _74
REMARK   33  A    between atoms: _74  and  _75
REMARK   34  A    between atoms: _74  and  _77
REMARK   35  A    between atoms: _77  and  _78
REMARK   36  A    between atoms: _83  and  _85
REMARK   37  A    between atoms: _85  and  _86
REMARK   38  A    between atoms: _85  and  _88
REMARK   39  A    between atoms: _88  and  _89
REMARK   40  A    between atoms: _89  and  _90
REMARK   41  A    between atoms: _90  and  _91
REMARK   42  A    between atoms: _100  and  _102
REMARK   43  A    between atoms: _102  and  _103
REMARK   44  A    between atoms: _105  and  _107
REMARK   45  A    between atoms: _107  and  _108
REMARK   46  A    between atoms: _107  and  _110
REMARK   47  A    between atoms: _113  and  _115
REMARK   48  A    between atoms: _115  and  _116
REMARK   49  A    between atoms: _115  and  _118
REMARK   50  A    between atoms: _118  and  _119
REMARK   51  A    between atoms: _122  and  _124
REMARK   52  A    between atoms: _124  and  _125
REMARK   53  A    between atoms: _124  and  _127
REMARK   54  A    between atoms: _127  and  _128
REMARK   55  A    between atoms: _128  and  _129
REMARK   56  A    between atoms: _129  and  _130
REMARK   57  A    between atoms: _130  and  _131
REMARK   58  A    between atoms: _135  and  _137
REMARK   59  A    between atoms: _137  and  _138
REMARK   60  A    between atoms: _137  and  _140
REMARK   61  A    between atoms: _140  and  _141
REMARK   62  A    between atoms: _146  and  _148
REMARK   63  A    between atoms: _148  and  _149
REMARK   64  A    between atoms: _148  and  _151
REMARK   65  A    between atoms: _151  and  _152
REMARK   66  A    between atoms: _157  and  _159
REMARK   67  A    between atoms: _159  and  _160
REMARK   68  A    between atoms: _163  and  _165
REMARK   69  A    between atoms: _165  and  _166
REMARK   70  A    between atoms: _165  and  _168
REMARK   71  A    between atoms: _168  and  _169
REMARK   72  A    between atoms: _174  and  _176
REMARK   73  A    between atoms: _176  and  _177
REMARK   74  A    between atoms: _180  and  _182
REMARK   75  A    between atoms: _182  and  _183
REMARK   76  A    between atoms: _186  and  _188
REMARK   77  A    between atoms: _188  and  _189
REMARK   78  A    between atoms: _188  and  _191
REMARK   79  A    between atoms: _191  and  _192
REMARK   80  A    between atoms: _197  and  _199
REMARK   81  A    between atoms: _199  and  _200
REMARK   82  A    between atoms: _199  and  _202
REMARK   83  A    between atoms: _202  and  _203
REMARK   84  A    between atoms: _206  and  _208
REMARK   85  A    between atoms: _208  and  _209
REMARK   86  A    between atoms: _211  and  _213
REMARK   87  A    between atoms: _213  and  _214
REMARK   88  A    between atoms: _213  and  _216
REMARK   89  A    between atoms: _216  and  _217
REMARK   90  A    between atoms: _217  and  _218
REMARK   91  A    between atoms: _221  and  _223
REMARK   92  A    between atoms: _223  and  _224
REMARK   93  A    between atoms: _223  and  _226
REMARK   94  A    between atoms: _226  and  _227
REMARK   95  A    between atoms: _230  and  _232
REMARK   96  A    between atoms: _232  and  _233
REMARK   97  A    between atoms: _232  and  _235
REMARK   98  A    between atoms: _235  and  _236
REMARK   99  A    between atoms: _238  and  _240
REMARK  100  A    between atoms: _240  and  _241
REMARK  101  A    between atoms: _240  and  _243
REMARK  102  A    between atoms: _243  and  _244
REMARK  103  A    between atoms: _247  and  _249
REMARK  104  A    between atoms: _249  and  _250
REMARK  105  A    between atoms: _249  and  _252
REMARK  106  A    between atoms: _252  and  _253
REMARK  107  A    between atoms: _253  and  _254
REMARK  108  A    between atoms: _256  and  _258
REMARK  109  A    between atoms: _258  and  _259
REMARK  110  A    between atoms: _262  and  _264
REMARK  111  A    between atoms: _264  and  _265
REMARK  112  A    between atoms: _268  and  _270
REMARK  113  A    between atoms: _270  and  _271
REMARK  114  A    between atoms: _270  and  _273
REMARK  115  A    between atoms: _273  and  _274
REMARK  116  A    between atoms: _277  and  _279
REMARK  117  A    between atoms: _279  and  _280
REMARK  118  A    between atoms: _279  and  _282
REMARK  119  A    between atoms: _282  and  _283
REMARK  120  A    between atoms: _288  and  _290
REMARK  121  A    between atoms: _290  and  _291
REMARK  122  A    between atoms: _290  and  _293
REMARK  123  A    between atoms: _293  and  _294
REMARK  124  A    between atoms: _294  and  _295
REMARK  125  A    between atoms: _298  and  _300
REMARK  126  A    between atoms: _300  and  _301
REMARK  127  A    between atoms: _300  and  _303
REMARK  128  A    between atoms: _303  and  _304
REMARK  129  A    between atoms: _307  and  _309
REMARK  130  A    between atoms: _309  and  _310
REMARK  131  A    between atoms: _309  and  _312
REMARK  132  A    between atoms: _312  and  _313
REMARK  133  A    between atoms: _313  and  _314
REMARK  134  A    between atoms: _314  and  _315
REMARK  135  A    between atoms: _324  and  _326
REMARK  136  A    between atoms: _326  and  _327
REMARK  137  A    between atoms: _329  and  _331
REMARK  138  A    between atoms: _331  and  _332
REMARK  139  A    between atoms: _331  and  _334
REMARK  140  A    between atoms: _334  and  _335
REMARK  141  A    between atoms: _335  and  _336
REMARK  142  A    between atoms: _338  and  _340
REMARK  143  A    between atoms: _340  and  _341
REMARK  144  A    between atoms: _340  and  _343
REMARK  145  A    between atoms: _343  and  _344
REMARK  146  A    between atoms: _344  and  _345
REMARK  147  A    between atoms: _347  and  _349
REMARK  148  A    between atoms: _349  and  _350
REMARK  149  A    between atoms: _349  and  _352
REMARK  150  A    between atoms: _352  and  _353
REMARK  151  A    between atoms: _358  and  _360
REMARK  152  A    between atoms: _360  and  _361
REMARK  153  A    between atoms: _360  and  _363
REMARK  154  A    between atoms: _363  and  _364
REMARK  155  A    between atoms: _364  and  _365
REMARK  156  A    between atoms: _367  and  _369
REMARK  157  A    between atoms: _369  and  _370
REMARK  158  A    between atoms: _369  and  _372
REMARK  159  A    between atoms: _372  and  _373
REMARK  160  A    between atoms: _376  and  _378
REMARK  161  A    between atoms: _378  and  _379
REMARK  162  A    between atoms: _378  and  _381
REMARK  163  A    between atoms: _381  and  _382
REMARK  164  A    between atoms: _384  and  _386
REMARK  165  A    between atoms: _386  and  _387
REMARK  166  A    between atoms: _386  and  _389
REMARK  167  A    between atoms: _389  and  _390
REMARK  168  A    between atoms: _390  and  _391
REMARK  169  A    between atoms: _391  and  _392
REMARK  170  A    between atoms: _392  and  _393
REMARK  171  A    between atoms: _397  and  _399
REMARK  172  A    between atoms: _399  and  _400
REMARK  173  A    between atoms: _399  and  _402
REMARK  174  A    between atoms: _402  and  _403
REMARK  175  A    between atoms: _406  and  _408
REMARK  176  A    between atoms: _408  and  _409
REMARK  177  A    between atoms: _408  and  _411
REMARK  178  A    between atoms: _411  and  _412
REMARK  179  A    between atoms: _412  and  _413
REMARK  180  A    between atoms: _416  and  _418
REMARK  181  A    between atoms: _418  and  _419
REMARK  182  A    between atoms: _422  and  _424
REMARK  183  A    between atoms: _424  and  _425
REMARK  184  A    between atoms: _424  and  _427
REMARK  185  A    between atoms: _430  and  _432
REMARK  186  A    between atoms: _432  and  _433
REMARK  187  A    between atoms: _432  and  _435
REMARK  188  A    between atoms: _435  and  _436
REMARK  189  A    between atoms: _438  and  _440
REMARK  190  A    between atoms: _440  and  _441
REMARK  191  A    between atoms: _443  and  _445
REMARK  192  A    between atoms: _445  and  _446
REMARK  193  A    between atoms: _445  and  _448
REMARK  194  A    between atoms: _448  and  _449
REMARK  195  A    between atoms: _454  and  _456
REMARK  196  A    between atoms: _456  and  _457
REMARK  197  A    between atoms: _456  and  _459
REMARK  198  A    between atoms: _459  and  _460
REMARK  199  A    between atoms: _465  and  _466
REMARK  200  A    between atoms: _468  and  _470
REMARK  201  A    between atoms: _470  and  _471
REMARK  202  A    between atoms: _470  and  _473
REMARK  203  A    between atoms: _475  and  _477
REMARK  204  A    between atoms: _477  and  _478
REMARK  205  A    between atoms: _477  and  _480
REMARK  206  A    between atoms: _480  and  _481
REMARK  207  A    between atoms: _484  and  _486
REMARK  208  A    between atoms: _486  and  _487
REMARK  209  A    between atoms: _486  and  _489
REMARK  210  A    between atoms: _489  and  _490
REMARK  211  A    between atoms: _493  and  _495
REMARK  212  A    between atoms: _495  and  _496
REMARK  213  A    between atoms: _495  and  _498
REMARK  214  A    between atoms: _498  and  _499
REMARK  215  A    between atoms: _499  and  _500
REMARK  216  A    between atoms: _500  and  _501
REMARK  217  A    between atoms: _501  and  _502
REMARK  218  A    between atoms: _506  and  _508
REMARK  219  A    between atoms: _508  and  _509
REMARK  220  A    between atoms: _508  and  _511
REMARK  221  A    between atoms: _511  and  _512
REMARK  222  A    between atoms: _512  and  _513
REMARK  223  A    between atoms: _513  and  _514
REMARK  224  A    between atoms: _514  and  _515
REMARK  225  A    between atoms: _519  and  _521
REMARK  226  A    between atoms: _521  and  _522
REMARK  227  A    between atoms: _521  and  _524
REMARK  228  A    between atoms: _524  and  _525
REMARK  229  A    between atoms: _525  and  _526
REMARK  230  A    between atoms: _526  and  _527
REMARK  231  A    between atoms: _536  and  _538
REMARK  232  A    between atoms: _538  and  _539
REMARK  233  A    between atoms: _538  and  _541
REMARK  234  A    between atoms: _541  and  _542
REMARK  235  A    between atoms: _545  and  _547
REMARK  236  A    between atoms: _547  and  _548
REMARK  237  A    between atoms: _551  and  _553
REMARK  238  A    between atoms: _553  and  _554
REMARK  239  A    between atoms: _553  and  _556
REMARK  240  A    between atoms: _556  and  _557
REMARK  241  A    between atoms: _557  and  _558
REMARK                            x       y       z     vdW  Elec       q    Type
REMARK                         _______ _______ _______ _____ _____    ______ ____
ROOT
ATOM      1  O   HOH     1     -22.389  11.771  51.765  0.00  0.00    +0.000 OA
ENDROOT
TORSDOF 0
REMARK  Name = ../refined-set-2016/3ccw/3ccw_pocket.pdb
REMARK  241 active torsions:
REMARK  status: ('A' for Active; 'I' for Inactive)
REMARK    1  A    between atoms: _1  and  _3
REMARK    2  A    between atoms: _3  and  _4
REMARK    3  A    between atoms: _3  and  _6
REMARK    4  A    between atoms: _6  and  _7
REMARK    5  A    between atoms: _10  and  _12
REMARK    6  A    between atoms: _12  and  _13
REMARK    7  A    between atoms: _12  and  _15
REMARK    8  A    between atoms: _15  and  _16
REMARK    9  A    between atoms: _16  and  _17
REMARK   10  A    between atoms: _20  and  _22
REMARK   11  A    between atoms: _22  and  _23
REMARK   12  A    between atoms: _25  and  _27
REMARK   13  A    between atoms: _27  and  _28
REMARK   14  A    between atoms: _27  and  _30
REMARK   15  A    between atoms: _32  and  _34
REMARK   16  A    between atoms: _34  and  _35
REMARK   17  A    between atoms: _34  and  _37
REMARK   18  A    between atoms: _37  and  _38
REMARK   19  A    between atoms: _41  and  _43
REMARK   20  A    between atoms: _43  and  _44
REMARK   21  A    between atoms: _43  and  _46
REMARK   22  A    between atoms: _49  and  _51
REMARK   23  A    between atoms: _51  and  _52
REMARK   24  A    between atoms: _55  and  _57
REMARK   25  A    between atoms: _57  and  _58
REMARK   26  A    between atoms: _57  and  _60
REMARK   27  A    between atoms: _60  and  _61
REMARK   28  A    between atoms: _63  and  _65
REMARK   29  A    between atoms: _65  and  _66
REMARK   30  A    between atoms: _65  and  _68
REMARK   31  A    between atoms: _68  and  _69
REMARK   32  A    between atoms: _72  and  _74
REMARK   33  A    between atoms: _74  and  _75
REMARK   34  A    between atoms: _74  and  _77
REMARK   35  A    between atoms: _77  and  _78
REMARK   36  A    between atoms: _83  and  _85
REMARK   37  A    between atoms: _85  and  _86
REMARK   38  A    between atoms: _85  and  _88
REMARK   39  A    between atoms: _88  and  _89
REMARK   40  A    between atoms: _89  and  _90
REMARK   41  A    between atoms: _90  and  _91
REMARK   42  A    between atoms: _100  and  _102
REMARK   43  A    between atoms: _102  and  _103
REMARK   44  A    between atoms: _105  and  _107
REMARK   45  A    between atoms: _107  and  _108
REMARK   46  A    between atoms: _107  and  _110
REMARK   47  A    between atoms: _113  and  _115
REMARK   48  A    between atoms: _115  and  _116
REMARK   49  A    between atoms: _115  and  _118
REMARK   50  A    between atoms: _118  and  _119
REMARK   51  A    between atoms: _122  and  _124
REMARK   52  A    between atoms: _124  and  _125
REMARK   53  A    between atoms: _124  and  _127
REMARK   54  A    between atoms: _127  and  _128
REMARK   55  A    between atoms: _128  and  _129
REMARK   56  A    between atoms: _129  and  _130
REMARK   57  A    between atoms: _130  and  _131
REMARK   58  A    between atoms: _135  and  _137
REMARK   59  A    between atoms: _137  and  _138
REMARK   60  A    between atoms: _137  and  _140
REMARK   61  A    between atoms: _140  and  _141
REMARK   62  A    between atoms: _146  and  _148
REMARK   63  A    between atoms: _148  and  _149
REMARK   64  A    between atoms: _148  and  _151
REMARK   65  A    between atoms: _151  and  _152
REMARK   66  A    between atoms: _157  and  _159
REMARK   67  A    between atoms: _159  and  _160
REMARK   68  A    between atoms: _163  and  _165
REMARK   69  A    between atoms: _165  and  _166
REMARK   70  A    between atoms: _165  and  _168
REMARK   71  A    between atoms: _168  and  _169
REMARK   72  A    between atoms: _174  and  _176
REMARK   73  A    between atoms: _176  and  _177
REMARK   74  A    between atoms: _180  and  _182
REMARK   75  A    between atoms: _182  and  _183
REMARK   76  A    between atoms: _186  and  _188
REMARK   77  A    between atoms: _188  and  _189
REMARK   78  A    between atoms: _188  and  _191
REMARK   79  A    between atoms: _191  and  _192
REMARK   80  A    between atoms: _197  and  _199
REMARK   81  A    between atoms: _199  and  _200
REMARK   82  A    between atoms: _199  and  _202
REMARK   83  A    between atoms: _202  and  _203
REMARK   84  A    between atoms: _206  and  _208
REMARK   85  A    between atoms: _208  and  _209
REMARK   86  A    between atoms: _211  and  _213
REMARK   87  A    between atoms: _213  and  _214
REMARK   88  A    between atoms: _213  and  _216
REMARK   89  A    between atoms: _216  and  _217
REMARK   90  A    between atoms: _217  and  _218
REMARK   91  A    between atoms: _221  and  _223
REMARK   92  A    between atoms: _223  and  _224
REMARK   93  A    between atoms: _223  and  _226
REMARK   94  A    between atoms: _226  and  _227
REMARK   95  A    between atoms: _230  and  _232
REMARK   96  A    between atoms: _232  and  _233
REMARK   97  A    between atoms: _232  and  _235
REMARK   98  A    between atoms: _235  and  _236
REMARK   99  A    between atoms: _238  and  _240
REMARK  100  A    between atoms: _240  and  _241
REMARK  101  A    between atoms: _240  and  _243
REMARK  102  A    between atoms: _243  and  _244
REMARK  103  A    between atoms: _247  and  _249
REMARK  104  A    between atoms: _249  and  _250
REMARK  105  A    between atoms: _249  and  _252
REMARK  106  A    between atoms: _252  and  _253
REMARK  107  A    between atoms: _253  and  _254
REMARK  108  A    between atoms: _256  and  _258
REMARK  109  A    between atoms: _258  and  _259
REMARK  110  A    between atoms: _262  and  _264
REMARK  111  A    between atoms: _264  and  _265
REMARK  112  A    between atoms: _268  and  _270
REMARK  113  A    between atoms: _270  and  _271
REMARK  114  A    between atoms: _270  and  _273
REMARK  115  A    between atoms: _273  and  _274
REMARK  116  A    between atoms: _277  and  _279
REMARK  117  A    between atoms: _279  and  _280
REMARK  118  A    between atoms: _279  and  _282
REMARK  119  A    between atoms: _282  and  _283
REMARK  120  A    between atoms: _288  and  _290
REMARK  121  A    between atoms: _290  and  _291
REMARK  122  A    between atoms: _290  and  _293
REMARK  123  A    between atoms: _293  and  _294
REMARK  124  A    between atoms: _294  and  _295
REMARK  125  A    between atoms: _298  and  _300
REMARK  126  A    between atoms: _300  and  _301
REMARK  127  A    between atoms: _300  and  _303
REMARK  128  A    between atoms: _303  and  _304
REMARK  129  A    between atoms: _307  and  _309
REMARK  130  A    between atoms: _309  and  _310
REMARK  131  A    between atoms: _309  and  _312
REMARK  132  A    between atoms: _312  and  _313
REMARK  133  A    between atoms: _313  and  _314
REMARK  134  A    between atoms: _314  and  _315
REMARK  135  A    between atoms: _324  and  _326
REMARK  136  A    between atoms: _326  and  _327
REMARK  137  A    between atoms: _329  and  _331
REMARK  138  A    between atoms: _331  and  _332
REMARK  139  A    between atoms: _331  and  _334
REMARK  140  A    between atoms: _334  and  _335
REMARK  141  A    between atoms: _335  and  _336
REMARK  142  A    between atoms: _338  and  _340
REMARK  143  A    between atoms: _340  and  _341
REMARK  144  A    between atoms: _340  and  _343
REMARK  145  A    between atoms: _343  and  _344
REMARK  146  A    between atoms: _344  and  _345
REMARK  147  A    between atoms: _347  and  _349
REMARK  148  A    between atoms: _349  and  _350
REMARK  149  A    between atoms: _349  and  _352
REMARK  150  A    between atoms: _352  and  _353
REMARK  151  A    between atoms: _358  and  _360
REMARK  152  A    between atoms: _360  and  _361
REMARK  153  A    between atoms: _360  and  _363
REMARK  154  A    between atoms: _363  and  _364
REMARK  155  A    between atoms: _364  and  _365
REMARK  156  A    between atoms: _367  and  _369
REMARK  157  A    between atoms: _369  and  _370
REMARK  158  A    between atoms: _369  and  _372
REMARK  159  A    between atoms: _372  and  _373
REMARK  160  A    between atoms: _376  and  _378
REMARK  161  A    between atoms: _378  and  _379
REMARK  162  A    between atoms: _378  and  _381
REMARK  163  A    between atoms: _381  and  _382
REMARK  164  A    between atoms: _384  and  _386
REMARK  165  A    between atoms: _386  and  _387
REMARK  166  A    between atoms: _386  and  _389
REMARK  167  A    between atoms: _389  and  _390
REMARK  168  A    between atoms: _390  and  _391
REMARK  169  A    between atoms: _391  and  _392
REMARK  170  A    between atoms: _392  and  _393
REMARK  171  A    between atoms: _397  and  _399
REMARK  172  A    between atoms: _399  and  _400
REMARK  173  A    between atoms: _399  and  _402
REMARK  174  A    between atoms: _402  and  _403
REMARK  175  A    between atoms: _406  and  _408
REMARK  176  A    between atoms: _408  and  _409
REMARK  177  A    between atoms: _408  and  _411
REMARK  178  A    between atoms: _411  and  _412
REMARK  179  A    between atoms: _412  and  _413
REMARK  180  A    between atoms: _416  and  _418
REMARK  181  A    between atoms: _418  and  _419
REMARK  182  A    between atoms: _422  and  _424
REMARK  183  A    between atoms: _424  and  _425
REMARK  184  A    between atoms: _424  and  _427
REMARK  185  A    between atoms: _430  and  _432
REMARK  186  A    between atoms: _432  and  _433
REMARK  187  A    between atoms: _432  and  _435
REMARK  188  A    between atoms: _435  and  _436
REMARK  189  A    between atoms: _438  and  _440
REMARK  190  A    between atoms: _440  and  _441
REMARK  191  A    between atoms: _443  and  _445
REMARK  192  A    between atoms: _445  and  _446
REMARK  193  A    between atoms: _445  and  _448
REMARK  194  A    between atoms: _448  and  _449
REMARK  195  A    between atoms: _454  and  _456
REMARK  196  A    between atoms: _456  and  _457
REMARK  197  A    between atoms: _456  and  _459
REMARK  198  A    between atoms: _459  and  _460
REMARK  199  A    between atoms: _465  and  _466
REMARK  200  A    between atoms: _468  and  _470
REMARK  201  A    between atoms: _470  and  _471
REMARK  202  A    between atoms: _470  and  _473
REMARK  203  A    between atoms: _475  and  _477
REMARK  204  A    between atoms: _477  and  _478
REMARK  205  A    between atoms: _477  and  _480
REMARK  206  A    between atoms: _480  and  _481
REMARK  207  A    between atoms: _484  and  _486
REMARK  208  A    between atoms: _486  and  _487
REMARK  209  A    between atoms: _486  and  _489
REMARK  210  A    between atoms: _489  and  _490
REMARK  211  A    between atoms: _493  and  _495
REMARK  212  A    between atoms: _495  and  _496
REMARK  213  A    between atoms: _495  and  _498
REMARK  214  A    between atoms: _498  and  _499
REMARK  215  A    between atoms: _499  and  _500
REMARK  216  A    between atoms: _500  and  _501
REMARK  217  A    between atoms: _501  and  _502
REMARK  218  A    between atoms: _506  and  _508
REMARK  219  A    between atoms: _508  and  _509
REMARK  220  A    between atoms: _508  and  _511
REMARK  221  A    between atoms: _511  and  _512
REMARK  222  A    between atoms: _512  and  _513
REMARK  223  A    between atoms: _513  and  _514
REMARK  224  A    between atoms: _514  and  _515
REMARK  225  A    between atoms: _519  and  _521
REMARK  226  A    between atoms: _521  and  _522
REMARK  227  A    between atoms: _521  and  _524
REMARK  228  A    between atoms: _524  and  _525
REMARK  229  A    between atoms: _525  and  _526
REMARK  230  A    between atoms: _526  and  _527
REMARK  231  A    between atoms: _536  and  _538
REMARK  232  A    between atoms: _538  and  _539
REMARK  233  A    between atoms: _538  and  _541
REMARK  234  A    between atoms: _541  and  _542
REMARK  235  A    between atoms: _545  and  _547
REMARK  236  A    between atoms: _547  and  _548
REMARK  237  A    between atoms: _551  and  _553
REMARK  238  A    between atoms: _553  and  _554
REMARK  239  A    between atoms: _553  and  _556
REMARK  240  A    between atoms: _556  and  _557
REMARK  241  A    between atoms: _557  and  _558
REMARK                            x       y       z     vdW  Elec       q    Type
REMARK                         _______ _______ _______ _____ _____    ______ ____
ROOT
ATOM      1  O   HOH     1     -14.181   6.331  33.313  0.00  0.00    +0.000 OA
ENDROOT
TORSDOF 0
REMARK  Name = ../refined-set-2016/3ccw/3ccw_pocket.pdb
REMARK  241 active torsions:
REMARK  status: ('A' for Active; 'I' for Inactive)
REMARK    1  A    between atoms: _1  and  _3
REMARK    2  A    between atoms: _3  and  _4
REMARK    3  A    between atoms: _3  and  _6
REMARK    4  A    between atoms: _6  and  _7
REMARK    5  A    between atoms: _10  and  _12
REMARK    6  A    between atoms: _12  and  _13
REMARK    7  A    between atoms: _12  and  _15
REMARK    8  A    between atoms: _15  and  _16
REMARK    9  A    between atoms: _16  and  _17
REMARK   10  A    between atoms: _20  and  _22
REMARK   11  A    between atoms: _22  and  _23
REMARK   12  A    between atoms: _25  and  _27
REMARK   13  A    between atoms: _27  and  _28
REMARK   14  A    between atoms: _27  and  _30
REMARK   15  A    between atoms: _32  and  _34
REMARK   16  A    between atoms: _34  and  _35
REMARK   17  A    between atoms: _34  and  _37
REMARK   18  A    between atoms: _37  and  _38
REMARK   19  A    between atoms: _41  and  _43
REMARK   20  A    between atoms: _43  and  _44
REMARK   21  A    between atoms: _43  and  _46
REMARK   22  A    between atoms: _49  and  _51
REMARK   23  A    between atoms: _51  and  _52
REMARK   24  A    between atoms: _55  and  _57
REMARK   25  A    between atoms: _57  and  _58
REMARK   26  A    between atoms: _57  and  _60
REMARK   27  A    between atoms: _60  and  _61
REMARK   28  A    between atoms: _63  and  _65
REMARK   29  A    between atoms: _65  and  _66
REMARK   30  A    between atoms: _65  and  _68
REMARK   31  A    between atoms: _68  and  _69
REMARK   32  A    between atoms: _72  and  _74
REMARK   33  A    between atoms: _74  and  _75
REMARK   34  A    between atoms: _74  and  _77
REMARK   35  A    between atoms: _77  and  _78
REMARK   36  A    between atoms: _83  and  _85
REMARK   37  A    between atoms: _85  and  _86
REMARK   38  A    between atoms: _85  and  _88
REMARK   39  A    between atoms: _88  and  _89
REMARK   40  A    between atoms: _89  and  _90
REMARK   41  A    between atoms: _90  and  _91
REMARK   42  A    between atoms: _100  and  _102
REMARK   43  A    between atoms: _102  and  _103
REMARK   44  A    between atoms: _105  and  _107
REMARK   45  A    between atoms: _107  and  _108
REMARK   46  A    between atoms: _107  and  _110
REMARK   47  A    between atoms: _113  and  _115
REMARK   48  A    between atoms: _115  and  _116
REMARK   49  A    between atoms: _115  and  _118
REMARK   50  A    between atoms: _118  and  _119
REMARK   51  A    between atoms: _122  and  _124
REMARK   52  A    between atoms: _124  and  _125
REMARK   53  A    between atoms: _124  and  _127
REMARK   54  A    between atoms: _127  and  _128
REMARK   55  A    between atoms: _128  and  _129
REMARK   56  A    between atoms: _129  and  _130
REMARK   57  A    between atoms: _130  and  _131
REMARK   58  A    between atoms: _135  and  _137
REMARK   59  A    between atoms: _137  and  _138
REMARK   60  A    between atoms: _137  and  _140
REMARK   61  A    between atoms: _140  and  _141
REMARK   62  A    between atoms: _146  and  _148
REMARK   63  A    between atoms: _148  and  _149
REMARK   64  A    between atoms: _148  and  _151
REMARK   65  A    between atoms: _151  and  _152
REMARK   66  A    between atoms: _157  and  _159
REMARK   67  A    between atoms: _159  and  _160
REMARK   68  A    between atoms: _163  and  _165
REMARK   69  A    between atoms: _165  and  _166
REMARK   70  A    between atoms: _165  and  _168
REMARK   71  A    between atoms: _168  and  _169
REMARK   72  A    between atoms: _174  and  _176
REMARK   73  A    between atoms: _176  and  _177
REMARK   74  A    between atoms: _180  and  _182
REMARK   75  A    between atoms: _182  and  _183
REMARK   76  A    between atoms: _186  and  _188
REMARK   77  A    between atoms: _188  and  _189
REMARK   78  A    between atoms: _188  and  _191
REMARK   79  A    between atoms: _191  and  _192
REMARK   80  A    between atoms: _197  and  _199
REMARK   81  A    between atoms: _199  and  _200
REMARK   82  A    between atoms: _199  and  _202
REMARK   83  A    between atoms: _202  and  _203
REMARK   84  A    between atoms: _206  and  _208
REMARK   85  A    between atoms: _208  and  _209
REMARK   86  A    between atoms: _211  and  _213
REMARK   87  A    between atoms: _213  and  _214
REMARK   88  A    between atoms: _213  and  _216
REMARK   89  A    between atoms: _216  and  _217
REMARK   90  A    between atoms: _217  and  _218
REMARK   91  A    between atoms: _221  and  _223
REMARK   92  A    between atoms: _223  and  _224
REMARK   93  A    between atoms: _223  and  _226
REMARK   94  A    between atoms: _226  and  _227
REMARK   95  A    between atoms: _230  and  _232
REMARK   96  A    between atoms: _232  and  _233
REMARK   97  A    between atoms: _232  and  _235
REMARK   98  A    between atoms: _235  and  _236
REMARK   99  A    between atoms: _238  and  _240
REMARK  100  A    between atoms: _240  and  _241
REMARK  101  A    between atoms: _240  and  _243
REMARK  102  A    between atoms: _243  and  _244
REMARK  103  A    between atoms: _247  and  _249
REMARK  104  A    between atoms: _249  and  _250
REMARK  105  A    between atoms: _249  and  _252
REMARK  106  A    between atoms: _252  and  _253
REMARK  107  A    between atoms: _253  and  _254
REMARK  108  A    between atoms: _256  and  _258
REMARK  109  A    between atoms: _258  and  _259
REMARK  110  A    between atoms: _262  and  _264
REMARK  111  A    between atoms: _264  and  _265
REMARK  112  A    between atoms: _268  and  _270
REMARK  113  A    between atoms: _270  and  _271
REMARK  114  A    between atoms: _270  and  _273
REMARK  115  A    between atoms: _273  and  _274
REMARK  116  A    between atoms: _277  and  _279
REMARK  117  A    between atoms: _279  and  _280
REMARK  118  A    between atoms: _279  and  _282
REMARK  119  A    between atoms: _282  and  _283
REMARK  120  A    between atoms: _288  and  _290
REMARK  121  A    between atoms: _290  and  _291
REMARK  122  A    between atoms: _290  and  _293
REMARK  123  A    between atoms: _293  and  _294
REMARK  124  A    between atoms: _294  and  _295
REMARK  125  A    between atoms: _298  and  _300
REMARK  126  A    between atoms: _300  and  _301
REMARK  127  A    between atoms: _300  and  _303
REMARK  128  A    between atoms: _303  and  _304
REMARK  129  A    between atoms: _307  and  _309
REMARK  130  A    between atoms: _309  and  _310
REMARK  131  A    between atoms: _309  and  _312
REMARK  132  A    between atoms: _312  and  _313
REMARK  133  A    between atoms: _313  and  _314
REMARK  134  A    between atoms: _314  and  _315
REMARK  135  A    between atoms: _324  and  _326
REMARK  136  A    between atoms: _326  and  _327
REMARK  137  A    between atoms: _329  and  _331
REMARK  138  A    between atoms: _331  and  _332
REMARK  139  A    between atoms: _331  and  _334
REMARK  140  A    between atoms: _334  and  _335
REMARK  141  A    between atoms: _335  and  _336
REMARK  142  A    between atoms: _338  and  _340
REMARK  143  A    between atoms: _340  and  _341
REMARK  144  A    between atoms: _340  and  _343
REMARK  145  A    between atoms: _343  and  _344
REMARK  146  A    between atoms: _344  and  _345
REMARK  147  A    between atoms: _347  and  _349
REMARK  148  A    between atoms: _349  and  _350
REMARK  149  A    between atoms: _349  and  _352
REMARK  150  A    between atoms: _352  and  _353
REMARK  151  A    between atoms: _358  and  _360
REMARK  152  A    between atoms: _360  and  _361
REMARK  153  A    between atoms: _360  and  _363
REMARK  154  A    between atoms: _363  and  _364
REMARK  155  A    between atoms: _364  and  _365
REMARK  156  A    between atoms: _367  and  _369
REMARK  157  A    between atoms: _369  and  _370
REMARK  158  A    between atoms: _369  and  _372
REMARK  159  A    between atoms: _372  and  _373
REMARK  160  A    between atoms: _376  and  _378
REMARK  161  A    between atoms: _378  and  _379
REMARK  162  A    between atoms: _378  and  _381
REMARK  163  A    between atoms: _381  and  _382
REMARK  164  A    between atoms: _384  and  _386
REMARK  165  A    between atoms: _386  and  _387
REMARK  166  A    between atoms: _386  and  _389
REMARK  167  A    between atoms: _389  and  _390
REMARK  168  A    between atoms: _390  and  _391
REMARK  169  A    between atoms: _391  and  _392
REMARK  170  A    between atoms: _392  and  _393
REMARK  171  A    between atoms: _397  and  _399
REMARK  172  A    between atoms: _399  and  _400
REMARK  173  A    between atoms: _399  and  _402
REMARK  174  A    between atoms: _402  and  _403
REMARK  175  A    between atoms: _406  and  _408
REMARK  176  A    between atoms: _408  and  _409
REMARK  177  A    between atoms: _408  and  _411
REMARK  178  A    between atoms: _411  and  _412
REMARK  179  A    between atoms: _412  and  _413
REMARK  180  A    between atoms: _416  and  _418
REMARK  181  A    between atoms: _418  and  _419
REMARK  182  A    between atoms: _422  and  _424
REMARK  183  A    between atoms: _424  and  _425
REMARK  184  A    between atoms: _424  and  _427
REMARK  185  A    between atoms: _430  and  _432
REMARK  186  A    between atoms: _432  and  _433
REMARK  187  A    between atoms: _432  and  _435
REMARK  188  A    between atoms: _435  and  _436
REMARK  189  A    between atoms: _438  and  _440
REMARK  190  A    between atoms: _440  and  _441
REMARK  191  A    between atoms: _443  and  _445
REMARK  192  A    between atoms: _445  and  _446
REMARK  193  A    between atoms: _445  and  _448
REMARK  194  A    between atoms: _448  and  _449
REMARK  195  A    between atoms: _454  and  _456
REMARK  196  A    between atoms: _456  and  _457
REMARK  197  A    between atoms: _456  and  _459
REMARK  198  A    between atoms: _459  and  _460
REMARK  199  A    between atoms: _465  and  _466
REMARK  200  A    between atoms: _468  and  _470
REMARK  201  A    between atoms: _470  and  _471
REMARK  202  A    between atoms: _470  and  _473
REMARK  203  A    between atoms: _475  and  _477
REMARK  204  A    between atoms: _477  and  _478
REMARK  205  A    between atoms: _477  and  _480
REMARK  206  A    between atoms: _480  and  _481
REMARK  207  A    between atoms: _484  and  _486
REMARK  208  A    between atoms: _486  and  _487
REMARK  209  A    between atoms: _486  and  _489
REMARK  210  A    between atoms: _489  and  _490
REMARK  211  A    between atoms: _493  and  _495
REMARK  212  A    between atoms: _495  and  _496
REMARK  213  A    between atoms: _495  and  _498
REMARK  214  A    between atoms: _498  and  _499
REMARK  215  A    between atoms: _499  and  _500
REMARK  216  A    between atoms: _500  and  _501
REMARK  217  A    between atoms: _501  and  _502
REMARK  218  A    between atoms: _506  and  _508
REMARK  219  A    between atoms: _508  and  _509
REMARK  220  A    between atoms: _508  and  _511
REMARK  221  A    between atoms: _511  and  _512
REMARK  222  A    between atoms: _512  and  _513
REMARK  223  A    between atoms: _513  and  _514
REMARK  224  A    between atoms: _514  and  _515
REMARK  225  A    between atoms: _519  and  _521
REMARK  226  A    between atoms: _521  and  _522
REMARK  227  A    between atoms: _521  and  _524
REMARK  228  A    between atoms: _524  and  _525
REMARK  229  A    between atoms: _525  and  _526
REMARK  230  A    between atoms: _526  and  _527
REMARK  231  A    between atoms: _536  and  _538
REMARK  232  A    between atoms: _538  and  _539
REMARK  233  A    between atoms: _538  and  _541
REMARK  234  A    between atoms: _541  and  _542
REMARK  235  A    between atoms: _545  and  _547
REMARK  236  A    between atoms: _547  and  _548
REMARK  237  A    between atoms: _551  and  _553
REMARK  238  A    between atoms: _553  and  _554
REMARK  239  A    between atoms: _553  and  _556
REMARK  240  A    between atoms: _556  and  _557
REMARK  241  A    between atoms: _557  and  _558
REMARK                            x       y       z     vdW  Elec       q    Type
REMARK                         _______ _______ _______ _____ _____    ______ ____
ROOT
ATOM      1  O   HOH     1      -9.914   0.740  40.782  0.00  0.00    +0.000 OA
ENDROOT
TORSDOF 0
REMARK  Name = ../refined-set-2016/3ccw/3ccw_pocket.pdb
REMARK  241 active torsions:
REMARK  status: ('A' for Active; 'I' for Inactive)
REMARK    1  A    between atoms: _1  and  _3
REMARK    2  A    between atoms: _3  and  _4
REMARK    3  A    between atoms: _3  and  _6
REMARK    4  A    between atoms: _6  and  _7
REMARK    5  A    between atoms: _10  and  _12
REMARK    6  A    between atoms: _12  and  _13
REMARK    7  A    between atoms: _12  and  _15
REMARK    8  A    between atoms: _15  and  _16
REMARK    9  A    between atoms: _16  and  _17
REMARK   10  A    between atoms: _20  and  _22
REMARK   11  A    between atoms: _22  and  _23
REMARK   12  A    between atoms: _25  and  _27
REMARK   13  A    between atoms: _27  and  _28
REMARK   14  A    between atoms: _27  and  _30
REMARK   15  A    between atoms: _32  and  _34
REMARK   16  A    between atoms: _34  and  _35
REMARK   17  A    between atoms: _34  and  _37
REMARK   18  A    between atoms: _37  and  _38
REMARK   19  A    between atoms: _41  and  _43
REMARK   20  A    between atoms: _43  and  _44
REMARK   21  A    between atoms: _43  and  _46
REMARK   22  A    between atoms: _49  and  _51
REMARK   23  A    between atoms: _51  and  _52
REMARK   24  A    between atoms: _55  and  _57
REMARK   25  A    between atoms: _57  and  _58
REMARK   26  A    between atoms: _57  and  _60
REMARK   27  A    between atoms: _60  and  _61
REMARK   28  A    between atoms: _63  and  _65
REMARK   29  A    between atoms: _65  and  _66
REMARK   30  A    between atoms: _65  and  _68
REMARK   31  A    between atoms: _68  and  _69
REMARK   32  A    between atoms: _72  and  _74
REMARK   33  A    between atoms: _74  and  _75
REMARK   34  A    between atoms: _74  and  _77
REMARK   35  A    between atoms: _77  and  _78
REMARK   36  A    between atoms: _83  and  _85
REMARK   37  A    between atoms: _85  and  _86
REMARK   38  A    between atoms: _85  and  _88
REMARK   39  A    between atoms: _88  and  _89
REMARK   40  A    between atoms: _89  and  _90
REMARK   41  A    between atoms: _90  and  _91
REMARK   42  A    between atoms: _100  and  _102
REMARK   43  A    between atoms: _102  and  _103
REMARK   44  A    between atoms: _105  and  _107
REMARK   45  A    between atoms: _107  and  _108
REMARK   46  A    between atoms: _107  and  _110
REMARK   47  A    between atoms: _113  and  _115
REMARK   48  A    between atoms: _115  and  _116
REMARK   49  A    between atoms: _115  and  _118
REMARK   50  A    between atoms: _118  and  _119
REMARK   51  A    between atoms: _122  and  _124
REMARK   52  A    between atoms: _124  and  _125
REMARK   53  A    between atoms: _124  and  _127
REMARK   54  A    between atoms: _127  and  _128
REMARK   55  A    between atoms: _128  and  _129
REMARK   56  A    between atoms: _129  and  _130
REMARK   57  A    between atoms: _130  and  _131
REMARK   58  A    between atoms: _135  and  _137
REMARK   59  A    between atoms: _137  and  _138
REMARK   60  A    between atoms: _137  and  _140
REMARK   61  A    between atoms: _140  and  _141
REMARK   62  A    between atoms: _146  and  _148
REMARK   63  A    between atoms: _148  and  _149
REMARK   64  A    between atoms: _148  and  _151
REMARK   65  A    between atoms: _151  and  _152
REMARK   66  A    between atoms: _157  and  _159
REMARK   67  A    between atoms: _159  and  _160
REMARK   68  A    between atoms: _163  and  _165
REMARK   69  A    between atoms: _165  and  _166
REMARK   70  A    between atoms: _165  and  _168
REMARK   71  A    between atoms: _168  and  _169
REMARK   72  A    between atoms: _174  and  _176
REMARK   73  A    between atoms: _176  and  _177
REMARK   74  A    between atoms: _180  and  _182
REMARK   75  A    between atoms: _182  and  _183
REMARK   76  A    between atoms: _186  and  _188
REMARK   77  A    between atoms: _188  and  _189
REMARK   78  A    between atoms: _188  and  _191
REMARK   79  A    between atoms: _191  and  _192
REMARK   80  A    between atoms: _197  and  _199
REMARK   81  A    between atoms: _199  and  _200
REMARK   82  A    between atoms: _199  and  _202
REMARK   83  A    between atoms: _202  and  _203
REMARK   84  A    between atoms: _206  and  _208
REMARK   85  A    between atoms: _208  and  _209
REMARK   86  A    between atoms: _211  and  _213
REMARK   87  A    between atoms: _213  and  _214
REMARK   88  A    between atoms: _213  and  _216
REMARK   89  A    between atoms: _216  and  _217
REMARK   90  A    between atoms: _217  and  _218
REMARK   91  A    between atoms: _221  and  _223
REMARK   92  A    between atoms: _223  and  _224
REMARK   93  A    between atoms: _223  and  _226
REMARK   94  A    between atoms: _226  and  _227
REMARK   95  A    between atoms: _230  and  _232
REMARK   96  A    between atoms: _232  and  _233
REMARK   97  A    between atoms: _232  and  _235
REMARK   98  A    between atoms: _235  and  _236
REMARK   99  A    between atoms: _238  and  _240
REMARK  100  A    between atoms: _240  and  _241
REMARK  101  A    between atoms: _240  and  _243
REMARK  102  A    between atoms: _243  and  _244
REMARK  103  A    between atoms: _247  and  _249
REMARK  104  A    between atoms: _249  and  _250
REMARK  105  A    between atoms: _249  and  _252
REMARK  106  A    between atoms: _252  and  _253
REMARK  107  A    between atoms: _253  and  _254
REMARK  108  A    between atoms: _256  and  _258
REMARK  109  A    between atoms: _258  and  _259
REMARK  110  A    between atoms: _262  and  _264
REMARK  111  A    between atoms: _264  and  _265
REMARK  112  A    between atoms: _268  and  _270
REMARK  113  A    between atoms: _270  and  _271
REMARK  114  A    between atoms: _270  and  _273
REMARK  115  A    between atoms: _273  and  _274
REMARK  116  A    between atoms: _277  and  _279
REMARK  117  A    between atoms: _279  and  _280
REMARK  118  A    between atoms: _279  and  _282
REMARK  119  A    between atoms: _282  and  _283
REMARK  120  A    between atoms: _288  and  _290
REMARK  121  A    between atoms: _290  and  _291
REMARK  122  A    between atoms: _290  and  _293
REMARK  123  A    between atoms: _293  and  _294
REMARK  124  A    between atoms: _294  and  _295
REMARK  125  A    between atoms: _298  and  _300
REMARK  126  A    between atoms: _300  and  _301
REMARK  127  A    between atoms: _300  and  _303
REMARK  128  A    between atoms: _303  and  _304
REMARK  129  A    between atoms: _307  and  _309
REMARK  130  A    between atoms: _309  and  _310
REMARK  131  A    between atoms: _309  and  _312
REMARK  132  A    between atoms: _312  and  _313
REMARK  133  A    between atoms: _313  and  _314
REMARK  134  A    between atoms: _314  and  _315
REMARK  135  A    between atoms: _324  and  _326
REMARK  136  A    between atoms: _326  and  _327
REMARK  137  A    between atoms: _329  and  _331
REMARK  138  A    between atoms: _331  and  _332
REMARK  139  A    between atoms: _331  and  _334
REMARK  140  A    between atoms: _334  and  _335
REMARK  141  A    between atoms: _335  and  _336
REMARK  142  A    between atoms: _338  and  _340
REMARK  143  A    between atoms: _340  and  _341
REMARK  144  A    between atoms: _340  and  _343
REMARK  145  A    between atoms: _343  and  _344
REMARK  146  A    between atoms: _344  and  _345
REMARK  147  A    between atoms: _347  and  _349
REMARK  148  A    between atoms: _349  and  _350
REMARK  149  A    between atoms: _349  and  _352
REMARK  150  A    between atoms: _352  and  _353
REMARK  151  A    between atoms: _358  and  _360
REMARK  152  A    between atoms: _360  and  _361
REMARK  153  A    between atoms: _360  and  _363
REMARK  154  A    between atoms: _363  and  _364
REMARK  155  A    between atoms: _364  and  _365
REMARK  156  A    between atoms: _367  and  _369
REMARK  157  A    between atoms: _369  and  _370
REMARK  158  A    between atoms: _369  and  _372
REMARK  159  A    between atoms: _372  and  _373
REMARK  160  A    between atoms: _376  and  _378
REMARK  161  A    between atoms: _378  and  _379
REMARK  162  A    between atoms: _378  and  _381
REMARK  163  A    between atoms: _381  and  _382
REMARK  164  A    between atoms: _384  and  _386
REMARK  165  A    between atoms: _386  and  _387
REMARK  166  A    between atoms: _386  and  _389
REMARK  167  A    between atoms: _389  and  _390
REMARK  168  A    between atoms: _390  and  _391
REMARK  169  A    between atoms: _391  and  _392
REMARK  170  A    between atoms: _392  and  _393
REMARK  171  A    between atoms: _397  and  _399
REMARK  172  A    between atoms: _399  and  _400
REMARK  173  A    between atoms: _399  and  _402
REMARK  174  A    between atoms: _402  and  _403
REMARK  175  A    between atoms: _406  and  _408
REMARK  176  A    between atoms: _408  and  _409
REMARK  177  A    between atoms: _408  and  _411
REMARK  178  A    between atoms: _411  and  _412
REMARK  179  A    between atoms: _412  and  _413
REMARK  180  A    between atoms: _416  and  _418
REMARK  181  A    between atoms: _418  and  _419
REMARK  182  A    between atoms: _422  and  _424
REMARK  183  A    between atoms: _424  and  _425
REMARK  184  A    between atoms: _424  and  _427
REMARK  185  A    between atoms: _430  and  _432
REMARK  186  A    between atoms: _432  and  _433
REMARK  187  A    between atoms: _432  and  _435
REMARK  188  A    between atoms: _435  and  _436
REMARK  189  A    between atoms: _438  and  _440
REMARK  190  A    between atoms: _440  and  _441
REMARK  191  A    between atoms: _443  and  _445
REMARK  192  A    between atoms: _445  and  _446
REMARK  193  A    between atoms: _445  and  _448
REMARK  194  A    between atoms: _448  and  _449
REMARK  195  A    between atoms: _454  and  _456
REMARK  196  A    between atoms: _456  and  _457
REMARK  197  A    between atoms: _456  and  _459
REMARK  198  A    between atoms: _459  and  _460
REMARK  199  A    between atoms: _465  and  _466
REMARK  200  A    between atoms: _468  and  _470
REMARK  201  A    between atoms: _470  and  _471
REMARK  202  A    between atoms: _470  and  _473
REMARK  203  A    between atoms: _475  and  _477
REMARK  204  A    between atoms: _477  and  _478
REMARK  205  A    between atoms: _477  and  _480
REMARK  206  A    between atoms: _480  and  _481
REMARK  207  A    between atoms: _484  and  _486
REMARK  208  A    between atoms: _486  and  _487
REMARK  209  A    between atoms: _486  and  _489
REMARK  210  A    between atoms: _489  and  _490
REMARK  211  A    between atoms: _493  and  _495
REMARK  212  A    between atoms: _495  and  _496
REMARK  213  A    between atoms: _495  and  _498
REMARK  214  A    between atoms: _498  and  _499
REMARK  215  A    between atoms: _499  and  _500
REMARK  216  A    between atoms: _500  and  _501
REMARK  217  A    between atoms: _501  and  _502
REMARK  218  A    between atoms: _506  and  _508
REMARK  219  A    between atoms: _508  and  _509
REMARK  220  A    between atoms: _508  and  _511
REMARK  221  A    between atoms: _511  and  _512
REMARK  222  A    between atoms: _512  and  _513
REMARK  223  A    between atoms: _513  and  _514
REMARK  224  A    between atoms: _514  and  _515
REMARK  225  A    between atoms: _519  and  _521
REMARK  226  A    between atoms: _521  and  _522
REMARK  227  A    between atoms: _521  and  _524
REMARK  228  A    between atoms: _524  and  _525
REMARK  229  A    between atoms: _525  and  _526
REMARK  230  A    between atoms: _526  and  _527
REMARK  231  A    between atoms: _536  and  _538
REMARK  232  A    between atoms: _538  and  _539
REMARK  233  A    between atoms: _538  and  _541
REMARK  234  A    between atoms: _541  and  _542
REMARK  235  A    between atoms: _545  and  _547
REMARK  236  A    between atoms: _547  and  _548
REMARK  237  A    between atoms: _551  and  _553
REMARK  238  A    between atoms: _553  and  _554
REMARK  239  A    between atoms: _553  and  _556
REMARK  240  A    between atoms: _556  and  _557
REMARK  241  A    between atoms: _557  and  _558
REMARK                            x       y       z     vdW  Elec       q    Type
REMARK                         _______ _______ _______ _____ _____    ______ ____
ROOT
ATOM      1  O   HOH     1     -11.361  13.471  37.205  0.00  0.00    +0.000 OA
ENDROOT
TORSDOF 0
REMARK  Name = ../refined-set-2016/3ccw/3ccw_pocket.pdb
REMARK  241 active torsions:
REMARK  status: ('A' for Active; 'I' for Inactive)
REMARK    1  A    between atoms: _1  and  _3
REMARK    2  A    between atoms: _3  and  _4
REMARK    3  A    between atoms: _3  and  _6
REMARK    4  A    between atoms: _6  and  _7
REMARK    5  A    between atoms: _10  and  _12
REMARK    6  A    between atoms: _12  and  _13
REMARK    7  A    between atoms: _12  and  _15
REMARK    8  A    between atoms: _15  and  _16
REMARK    9  A    between atoms: _16  and  _17
REMARK   10  A    between atoms: _20  and  _22
REMARK   11  A    between atoms: _22  and  _23
REMARK   12  A    between atoms: _25  and  _27
REMARK   13  A    between atoms: _27  and  _28
REMARK   14  A    between atoms: _27  and  _30
REMARK   15  A    between atoms: _32  and  _34
REMARK   16  A    between atoms: _34  and  _35
REMARK   17  A    between atoms: _34  and  _37
REMARK   18  A    between atoms: _37  and  _38
REMARK   19  A    between atoms: _41  and  _43
REMARK   20  A    between atoms: _43  and  _44
REMARK   21  A    between atoms: _43  and  _46
REMARK   22  A    between atoms: _49  and  _51
REMARK   23  A    between atoms: _51  and  _52
REMARK   24  A    between atoms: _55  and  _57
REMARK   25  A    between atoms: _57  and  _58
REMARK   26  A    between atoms: _57  and  _60
REMARK   27  A    between atoms: _60  and  _61
REMARK   28  A    between atoms: _63  and  _65
REMARK   29  A    between atoms: _65  and  _66
REMARK   30  A    between atoms: _65  and  _68
REMARK   31  A    between atoms: _68  and  _69
REMARK   32  A    between atoms: _72  and  _74
REMARK   33  A    between atoms: _74  and  _75
REMARK   34  A    between atoms: _74  and  _77
REMARK   35  A    between atoms: _77  and  _78
REMARK   36  A    between atoms: _83  and  _85
REMARK   37  A    between atoms: _85  and  _86
REMARK   38  A    between atoms: _85  and  _88
REMARK   39  A    between atoms: _88  and  _89
REMARK   40  A    between atoms: _89  and  _90
REMARK   41  A    between atoms: _90  and  _91
REMARK   42  A    between atoms: _100  and  _102
REMARK   43  A    between atoms: _102  and  _103
REMARK   44  A    between atoms: _105  and  _107
REMARK   45  A    between atoms: _107  and  _108
REMARK   46  A    between atoms: _107  and  _110
REMARK   47  A    between atoms: _113  and  _115
REMARK   48  A    between atoms: _115  and  _116
REMARK   49  A    between atoms: _115  and  _118
REMARK   50  A    between atoms: _118  and  _119
REMARK   51  A    between atoms: _122  and  _124
REMARK   52  A    between atoms: _124  and  _125
REMARK   53  A    between atoms: _124  and  _127
REMARK   54  A    between atoms: _127  and  _128
REMARK   55  A    between atoms: _128  and  _129
REMARK   56  A    between atoms: _129  and  _130
REMARK   57  A    between atoms: _130  and  _131
REMARK   58  A    between atoms: _135  and  _137
REMARK   59  A    between atoms: _137  and  _138
REMARK   60  A    between atoms: _137  and  _140
REMARK   61  A    between atoms: _140  and  _141
REMARK   62  A    between atoms: _146  and  _148
REMARK   63  A    between atoms: _148  and  _149
REMARK   64  A    between atoms: _148  and  _151
REMARK   65  A    between atoms: _151  and  _152
REMARK   66  A    between atoms: _157  and  _159
REMARK   67  A    between atoms: _159  and  _160
REMARK   68  A    between atoms: _163  and  _165
REMARK   69  A    between atoms: _165  and  _166
REMARK   70  A    between atoms: _165  and  _168
REMARK   71  A    between atoms: _168  and  _169
REMARK   72  A    between atoms: _174  and  _176
REMARK   73  A    between atoms: _176  and  _177
REMARK   74  A    between atoms: _180  and  _182
REMARK   75  A    between atoms: _182  and  _183
REMARK   76  A    between atoms: _186  and  _188
REMARK   77  A    between atoms: _188  and  _189
REMARK   78  A    between atoms: _188  and  _191
REMARK   79  A    between atoms: _191  and  _192
REMARK   80  A    between atoms: _197  and  _199
REMARK   81  A    between atoms: _199  and  _200
REMARK   82  A    between atoms: _199  and  _202
REMARK   83  A    between atoms: _202  and  _203
REMARK   84  A    between atoms: _206  and  _208
REMARK   85  A    between atoms: _208  and  _209
REMARK   86  A    between atoms: _211  and  _213
REMARK   87  A    between atoms: _213  and  _214
REMARK   88  A    between atoms: _213  and  _216
REMARK   89  A    between atoms: _216  and  _217
REMARK   90  A    between atoms: _217  and  _218
REMARK   91  A    between atoms: _221  and  _223
REMARK   92  A    between atoms: _223  and  _224
REMARK   93  A    between atoms: _223  and  _226
REMARK   94  A    between atoms: _226  and  _227
REMARK   95  A    between atoms: _230  and  _232
REMARK   96  A    between atoms: _232  and  _233
REMARK   97  A    between atoms: _232  and  _235
REMARK   98  A    between atoms: _235  and  _236
REMARK   99  A    between atoms: _238  and  _240
REMARK  100  A    between atoms: _240  and  _241
REMARK  101  A    between atoms: _240  and  _243
REMARK  102  A    between atoms: _243  and  _244
REMARK  103  A    between atoms: _247  and  _249
REMARK  104  A    between atoms: _249  and  _250
REMARK  105  A    between atoms: _249  and  _252
REMARK  106  A    between atoms: _252  and  _253
REMARK  107  A    between atoms: _253  and  _254
REMARK  108  A    between atoms: _256  and  _258
REMARK  109  A    between atoms: _258  and  _259
REMARK  110  A    between atoms: _262  and  _264
REMARK  111  A    between atoms: _264  and  _265
REMARK  112  A    between atoms: _268  and  _270
REMARK  113  A    between atoms: _270  and  _271
REMARK  114  A    between atoms: _270  and  _273
REMARK  115  A    between atoms: _273  and  _274
REMARK  116  A    between atoms: _277  and  _279
REMARK  117  A    between atoms: _279  and  _280
REMARK  118  A    between atoms: _279  and  _282
REMARK  119  A    between atoms: _282  and  _283
REMARK  120  A    between atoms: _288  and  _290
REMARK  121  A    between atoms: _290  and  _291
REMARK  122  A    between atoms: _290  and  _293
REMARK  123  A    between atoms: _293  and  _294
REMARK  124  A    between atoms: _294  and  _295
REMARK  125  A    between atoms: _298  and  _300
REMARK  126  A    between atoms: _300  and  _301
REMARK  127  A    between atoms: _300  and  _303
REMARK  128  A    between atoms: _303  and  _304
REMARK  129  A    between atoms: _307  and  _309
REMARK  130  A    between atoms: _309  and  _310
REMARK  131  A    between atoms: _309  and  _312
REMARK  132  A    between atoms: _312  and  _313
REMARK  133  A    between atoms: _313  and  _314
REMARK  134  A    between atoms: _314  and  _315
REMARK  135  A    between atoms: _324  and  _326
REMARK  136  A    between atoms: _326  and  _327
REMARK  137  A    between atoms: _329  and  _331
REMARK  138  A    between atoms: _331  and  _332
REMARK  139  A    between atoms: _331  and  _334
REMARK  140  A    between atoms: _334  and  _335
REMARK  141  A    between atoms: _335  and  _336
REMARK  142  A    between atoms: _338  and  _340
REMARK  143  A    between atoms: _340  and  _341
REMARK  144  A    between atoms: _340  and  _343
REMARK  145  A    between atoms: _343  and  _344
REMARK  146  A    between atoms: _344  and  _345
REMARK  147  A    between atoms: _347  and  _349
REMARK  148  A    between atoms: _349  and  _350
REMARK  149  A    between atoms: _349  and  _352
REMARK  150  A    between atoms: _352  and  _353
REMARK  151  A    between atoms: _358  and  _360
REMARK  152  A    between atoms: _360  and  _361
REMARK  153  A    between atoms: _360  and  _363
REMARK  154  A    between atoms: _363  and  _364
REMARK  155  A    between atoms: _364  and  _365
REMARK  156  A    between atoms: _367  and  _369
REMARK  157  A    between atoms: _369  and  _370
REMARK  158  A    between atoms: _369  and  _372
REMARK  159  A    between atoms: _372  and  _373
REMARK  160  A    between atoms: _376  and  _378
REMARK  161  A    between atoms: _378  and  _379
REMARK  162  A    between atoms: _378  and  _381
REMARK  163  A    between atoms: _381  and  _382
REMARK  164  A    between atoms: _384  and  _386
REMARK  165  A    between atoms: _386  and  _387
REMARK  166  A    between atoms: _386  and  _389
REMARK  167  A    between atoms: _389  and  _390
REMARK  168  A    between atoms: _390  and  _391
REMARK  169  A    between atoms: _391  and  _392
REMARK  170  A    between atoms: _392  and  _393
REMARK  171  A    between atoms: _397  and  _399
REMARK  172  A    between atoms: _399  and  _400
REMARK  173  A    between atoms: _399  and  _402
REMARK  174  A    between atoms: _402  and  _403
REMARK  175  A    between atoms: _406  and  _408
REMARK  176  A    between atoms: _408  and  _409
REMARK  177  A    between atoms: _408  and  _411
REMARK  178  A    between atoms: _411  and  _412
REMARK  179  A    between atoms: _412  and  _413
REMARK  180  A    between atoms: _416  and  _418
REMARK  181  A    between atoms: _418  and  _419
REMARK  182  A    between atoms: _422  and  _424
REMARK  183  A    between atoms: _424  and  _425
REMARK  184  A    between atoms: _424  and  _427
REMARK  185  A    between atoms: _430  and  _432
REMARK  186  A    between atoms: _432  and  _433
REMARK  187  A    between atoms: _432  and  _435
REMARK  188  A    between atoms: _435  and  _436
REMARK  189  A    between atoms: _438  and  _440
REMARK  190  A    between atoms: _440  and  _441
REMARK  191  A    between atoms: _443  and  _445
REMARK  192  A    between atoms: _445  and  _446
REMARK  193  A    between atoms: _445  and  _448
REMARK  194  A    between atoms: _448  and  _449
REMARK  195  A    between atoms: _454  and  _456
REMARK  196  A    between atoms: _456  and  _457
REMARK  197  A    between atoms: _456  and  _459
REMARK  198  A    between atoms: _459  and  _460
REMARK  199  A    between atoms: _465  and  _466
REMARK  200  A    between atoms: _468  and  _470
REMARK  201  A    between atoms: _470  and  _471
REMARK  202  A    between atoms: _470  and  _473
REMARK  203  A    between atoms: _475  and  _477
REMARK  204  A    between atoms: _477  and  _478
REMARK  205  A    between atoms: _477  and  _480
REMARK  206  A    between atoms: _480  and  _481
REMARK  207  A    between atoms: _484  and  _486
REMARK  208  A    between atoms: _486  and  _487
REMARK  209  A    between atoms: _486  and  _489
REMARK  210  A    between atoms: _489  and  _490
REMARK  211  A    between atoms: _493  and  _495
REMARK  212  A    between atoms: _495  and  _496
REMARK  213  A    between atoms: _495  and  _498
REMARK  214  A    between atoms: _498  and  _499
REMARK  215  A    between atoms: _499  and  _500
REMARK  216  A    between atoms: _500  and  _501
REMARK  217  A    between atoms: _501  and  _502
REMARK  218  A    between atoms: _506  and  _508
REMARK  219  A    between atoms: _508  and  _509
REMARK  220  A    between atoms: _508  and  _511
REMARK  221  A    between atoms: _511  and  _512
REMARK  222  A    between atoms: _512  and  _513
REMARK  223  A    between atoms: _513  and  _514
REMARK  224  A    between atoms: _514  and  _515
REMARK  225  A    between atoms: _519  and  _521
REMARK  226  A    between atoms: _521  and  _522
REMARK  227  A    between atoms: _521  and  _524
REMARK  228  A    between atoms: _524  and  _525
REMARK  229  A    between atoms: _525  and  _526
REMARK  230  A    between atoms: _526  and  _527
REMARK  231  A    between atoms: _536  and  _538
REMARK  232  A    between atoms: _538  and  _539
REMARK  233  A    between atoms: _538  and  _541
REMARK  234  A    between atoms: _541  and  _542
REMARK  235  A    between atoms: _545  and  _547
REMARK  236  A    between atoms: _547  and  _548
REMARK  237  A    between atoms: _551  and  _553
REMARK  238  A    between atoms: _553  and  _554
REMARK  239  A    between atoms: _553  and  _556
REMARK  240  A    between atoms: _556  and  _557
REMARK  241  A    between atoms: _557  and  _558
REMARK                            x       y       z     vdW  Elec       q    Type
REMARK                         _______ _______ _______ _____ _____    ______ ____
ROOT
ATOM      1  O   HOH     1     -13.887  -2.273  47.166  0.00  0.00    +0.000 OA
ENDROOT
TORSDOF 0
