REMARK  Name = ../refined-set-2016/4cr9/4cr9_pocket.pdb
REMARK  136 active torsions:
REMARK  status: ('A' for Active; 'I' for Inactive)
REMARK    1  A    between atoms: _1  and  _3
REMARK    2  A    between atoms: _3  and  _4
REMARK    3  A    between atoms: _3  and  _6
REMARK    4  A    between atoms: _9  and  _11
REMARK    5  A    between atoms: _11  and  _12
REMARK    6  A    between atoms: _11  and  _14
REMARK    7  A    between atoms: _16  and  _18
REMARK    8  A    between atoms: _18  and  _19
REMARK    9  A    between atoms: _22  and  _24
REMARK   10  A    between atoms: _24  and  _25
REMARK   11  A    between atoms: _24  and  _27
REMARK   12  A    between atoms: _27  and  _28
REMARK   13  A    between atoms: _33  and  _35
REMARK   14  A    between atoms: _35  and  _36
REMARK   15  A    between atoms: _39  and  _41
REMARK   16  A    between atoms: _41  and  _42
REMARK   17  A    between atoms: _41  and  _44
REMARK   18  A    between atoms: _44  and  _45
REMARK   19  A    between atoms: _48  and  _50
REMARK   20  A    between atoms: _50  and  _51
REMARK   21  A    between atoms: _50  and  _53
REMARK   22  A    between atoms: _56  and  _58
REMARK   23  A    between atoms: _58  and  _59
REMARK   24  A    between atoms: _58  and  _61
REMARK   25  A    between atoms: _61  and  _62
REMARK   26  A    between atoms: _67  and  _68
REMARK   27  A    between atoms: _70  and  _72
REMARK   28  A    between atoms: _72  and  _73
REMARK   29  A    between atoms: _72  and  _75
REMARK   30  A    between atoms: _75  and  _76
REMARK   31  A    between atoms: _76  and  _77
REMARK   32  A    between atoms: _77  and  _78
REMARK   33  A    between atoms: _78  and  _79
REMARK   34  A    between atoms: _83  and  _85
REMARK   35  A    between atoms: _85  and  _86
REMARK   36  A    between atoms: _85  and  _88
REMARK   37  A    between atoms: _88  and  _89
REMARK   38  A    between atoms: _92  and  _94
REMARK   39  A    between atoms: _94  and  _95
REMARK   40  A    between atoms: _94  and  _97
REMARK   41  A    between atoms: _97  and  _98
REMARK   42  A    between atoms: _103  and  _104
REMARK   43  A    between atoms: _106  and  _108
REMARK   44  A    between atoms: _108  and  _109
REMARK   45  A    between atoms: _112  and  _114
REMARK   46  A    between atoms: _114  and  _115
REMARK   47  A    between atoms: _114  and  _117
REMARK   48  A    between atoms: _117  and  _118
REMARK   49  A    between atoms: _118  and  _119
REMARK   50  A    between atoms: _119  and  _120
REMARK   51  A    between atoms: _120  and  _121
REMARK   52  A    between atoms: _125  and  _127
REMARK   53  A    between atoms: _127  and  _128
REMARK   54  A    between atoms: _127  and  _130
REMARK   55  A    between atoms: _130  and  _131
REMARK   56  A    between atoms: _134  and  _136
REMARK   57  A    between atoms: _136  and  _137
REMARK   58  A    between atoms: _140  and  _142
REMARK   59  A    between atoms: _142  and  _143
REMARK   60  A    between atoms: _142  and  _145
REMARK   61  A    between atoms: _145  and  _146
REMARK   62  A    between atoms: _146  and  _260
REMARK   63  A    between atoms: _147  and  _149
REMARK   64  A    between atoms: _149  and  _150
REMARK   65  A    between atoms: _149  and  _152
REMARK   66  A    between atoms: _152  and  _153
REMARK   67  A    between atoms: _153  and  _154
REMARK   68  A    between atoms: _154  and  _155
REMARK   69  A    between atoms: _155  and  _156
REMARK   70  A    between atoms: _160  and  _162
REMARK   71  A    between atoms: _162  and  _163
REMARK   72  A    between atoms: _165  and  _167
REMARK   73  A    between atoms: _167  and  _168
REMARK   74  A    between atoms: _167  and  _170
REMARK   75  A    between atoms: _170  and  _171
REMARK   76  A    between atoms: _174  and  _176
REMARK   77  A    between atoms: _176  and  _177
REMARK   78  A    between atoms: _176  and  _179
REMARK   79  A    between atoms: _179  and  _180
REMARK   80  A    between atoms: _182  and  _184
REMARK   81  A    between atoms: _184  and  _185
REMARK   82  A    between atoms: _187  and  _189
REMARK   83  A    between atoms: _189  and  _190
REMARK   84  A    between atoms: _192  and  _194
REMARK   85  A    between atoms: _194  and  _195
REMARK   86  A    between atoms: _194  and  _197
REMARK   87  A    between atoms: _197  and  _198
REMARK   88  A    between atoms: _201  and  _203
REMARK   89  A    between atoms: _203  and  _204
REMARK   90  A    between atoms: _203  and  _206
REMARK   91  A    between atoms: _206  and  _207
REMARK   92  A    between atoms: _210  and  _212
REMARK   93  A    between atoms: _212  and  _213
REMARK   94  A    between atoms: _212  and  _215
REMARK   95  A    between atoms: _215  and  _216
REMARK   96  A    between atoms: _218  and  _220
REMARK   97  A    between atoms: _220  and  _221
REMARK   98  A    between atoms: _220  and  _223
REMARK   99  A    between atoms: _223  and  _224
REMARK  100  A    between atoms: _234  and  _236
REMARK  101  A    between atoms: _236  and  _237
REMARK  102  A    between atoms: _239  and  _241
REMARK  103  A    between atoms: _241  and  _242
REMARK  104  A    between atoms: _241  and  _244
REMARK  105  A    between atoms: _244  and  _245
REMARK  106  A    between atoms: _245  and  _246
REMARK  107  A    between atoms: _249  and  _251
REMARK  108  A    between atoms: _251  and  _252
REMARK  109  A    between atoms: _254  and  _256
REMARK  110  A    between atoms: _256  and  _257
REMARK  111  A    between atoms: _256  and  _259
REMARK  112  A    between atoms: _259  and  _260
REMARK  113  A    between atoms: _261  and  _263
REMARK  114  A    between atoms: _263  and  _264
REMARK  115  A    between atoms: _267  and  _269
REMARK  116  A    between atoms: _269  and  _270
REMARK  117  A    between atoms: _269  and  _272
REMARK  118  A    between atoms: _272  and  _273
REMARK  119  A    between atoms: _273  and  _274
REMARK  120  A    between atoms: _279  and  _281
REMARK  121  A    between atoms: _281  and  _282
REMARK  122  A    between atoms: _281  and  _284
REMARK  123  A    between atoms: _284  and  _285
REMARK  124  A    between atoms: _285  and  _286
REMARK  125  A    between atoms: _286  and  _287
REMARK  126  A    between atoms: _297  and  _298
REMARK  127  A    between atoms: _303  and  _305
REMARK  128  A    between atoms: _305  and  _306
REMARK  129  A    between atoms: _308  and  _310
REMARK  130  A    between atoms: _310  and  _311
REMARK  131  A    between atoms: _310  and  _313
REMARK  132  A    between atoms: _316  and  _318
REMARK  133  A    between atoms: _318  and  _319
REMARK  134  A    between atoms: _318  and  _321
REMARK  135  A    between atoms: _321  and  _322
REMARK  136  A    between atoms: _327  and  _328
REMARK                            x       y       z     vdW  Elec       q    Type
REMARK                         _______ _______ _______ _____ _____    ______ ____
ROOT
ATOM      1  CA  VAL A   1      48.026  17.050   2.648  0.00  0.00    +0.133 C 
ENDROOT
BRANCH   1   2
ATOM      2  CB  VAL A   1      48.507  16.061   3.729  0.00  0.00    +0.023 C 
ATOM      3  CG2 VAL A   1      49.609  16.667   4.577  0.00  0.00    +0.002 C 
ATOM      4  CG1 VAL A   1      49.017  14.778   3.085  0.00  0.00    +0.002 C 
ENDBRANCH   1   2
BRANCH   1   5
ATOM      5  N   VAL A   1      47.691  18.360   3.204  0.00  0.00    -0.239 NA
ATOM      6  H   VAL A   1      47.310  18.411   4.171  0.00  0.00    +0.142 HD
ENDBRANCH   1   5
BRANCH   1   7
ATOM      7  C   VAL A   1      46.781  16.468   1.991  0.00  0.00    +0.224 C 
ATOM      8  O   VAL A   1      45.700  16.528   2.559  0.00  0.00    -0.287 OA
ENDBRANCH   1   7
TORSDOF 3
REMARK  Name = ../refined-set-2016/4cr9/4cr9_pocket.pdb
REMARK  136 active torsions:
REMARK  status: ('A' for Active; 'I' for Inactive)
REMARK    1  A    between atoms: _1  and  _3
REMARK    2  A    between atoms: _3  and  _4
REMARK    3  A    between atoms: _3  and  _6
REMARK    4  A    between atoms: _9  and  _11
REMARK    5  A    between atoms: _11  and  _12
REMARK    6  A    between atoms: _11  and  _14
REMARK    7  A    between atoms: _16  and  _18
REMARK    8  A    between atoms: _18  and  _19
REMARK    9  A    between atoms: _22  and  _24
REMARK   10  A    between atoms: _24  and  _25
REMARK   11  A    between atoms: _24  and  _27
REMARK   12  A    between atoms: _27  and  _28
REMARK   13  A    between atoms: _33  and  _35
REMARK   14  A    between atoms: _35  and  _36
REMARK   15  A    between atoms: _39  and  _41
REMARK   16  A    between atoms: _41  and  _42
REMARK   17  A    between atoms: _41  and  _44
REMARK   18  A    between atoms: _44  and  _45
REMARK   19  A    between atoms: _48  and  _50
REMARK   20  A    between atoms: _50  and  _51
REMARK   21  A    between atoms: _50  and  _53
REMARK   22  A    between atoms: _56  and  _58
REMARK   23  A    between atoms: _58  and  _59
REMARK   24  A    between atoms: _58  and  _61
REMARK   25  A    between atoms: _61  and  _62
REMARK   26  A    between atoms: _67  and  _68
REMARK   27  A    between atoms: _70  and  _72
REMARK   28  A    between atoms: _72  and  _73
REMARK   29  A    between atoms: _72  and  _75
REMARK   30  A    between atoms: _75  and  _76
REMARK   31  A    between atoms: _76  and  _77
REMARK   32  A    between atoms: _77  and  _78
REMARK   33  A    between atoms: _78  and  _79
REMARK   34  A    between atoms: _83  and  _85
REMARK   35  A    between atoms: _85  and  _86
REMARK   36  A    between atoms: _85  and  _88
REMARK   37  A    between atoms: _88  and  _89
REMARK   38  A    between atoms: _92  and  _94
REMARK   39  A    between atoms: _94  and  _95
REMARK   40  A    between atoms: _94  and  _97
REMARK   41  A    between atoms: _97  and  _98
REMARK   42  A    between atoms: _103  and  _104
REMARK   43  A    between atoms: _106  and  _108
REMARK   44  A    between atoms: _108  and  _109
REMARK   45  A    between atoms: _112  and  _114
REMARK   46  A    between atoms: _114  and  _115
REMARK   47  A    between atoms: _114  and  _117
REMARK   48  A    between atoms: _117  and  _118
REMARK   49  A    between atoms: _118  and  _119
REMARK   50  A    between atoms: _119  and  _120
REMARK   51  A    between atoms: _120  and  _121
REMARK   52  A    between atoms: _125  and  _127
REMARK   53  A    between atoms: _127  and  _128
REMARK   54  A    between atoms: _127  and  _130
REMARK   55  A    between atoms: _130  and  _131
REMARK   56  A    between atoms: _134  and  _136
REMARK   57  A    between atoms: _136  and  _137
REMARK   58  A    between atoms: _140  and  _142
REMARK   59  A    between atoms: _142  and  _143
REMARK   60  A    between atoms: _142  and  _145
REMARK   61  A    between atoms: _145  and  _146
REMARK   62  A    between atoms: _146  and  _260
REMARK   63  A    between atoms: _147  and  _149
REMARK   64  A    between atoms: _149  and  _150
REMARK   65  A    between atoms: _149  and  _152
REMARK   66  A    between atoms: _152  and  _153
REMARK   67  A    between atoms: _153  and  _154
REMARK   68  A    between atoms: _154  and  _155
REMARK   69  A    between atoms: _155  and  _156
REMARK   70  A    between atoms: _160  and  _162
REMARK   71  A    between atoms: _162  and  _163
REMARK   72  A    between atoms: _165  and  _167
REMARK   73  A    between atoms: _167  and  _168
REMARK   74  A    between atoms: _167  and  _170
REMARK   75  A    between atoms: _170  and  _171
REMARK   76  A    between atoms: _174  and  _176
REMARK   77  A    between atoms: _176  and  _177
REMARK   78  A    between atoms: _176  and  _179
REMARK   79  A    between atoms: _179  and  _180
REMARK   80  A    between atoms: _182  and  _184
REMARK   81  A    between atoms: _184  and  _185
REMARK   82  A    between atoms: _187  and  _189
REMARK   83  A    between atoms: _189  and  _190
REMARK   84  A    between atoms: _192  and  _194
REMARK   85  A    between atoms: _194  and  _195
REMARK   86  A    between atoms: _194  and  _197
REMARK   87  A    between atoms: _197  and  _198
REMARK   88  A    between atoms: _201  and  _203
REMARK   89  A    between atoms: _203  and  _204
REMARK   90  A    between atoms: _203  and  _206
REMARK   91  A    between atoms: _206  and  _207
REMARK   92  A    between atoms: _210  and  _212
REMARK   93  A    between atoms: _212  and  _213
REMARK   94  A    between atoms: _212  and  _215
REMARK   95  A    between atoms: _215  and  _216
REMARK   96  A    between atoms: _218  and  _220
REMARK   97  A    between atoms: _220  and  _221
REMARK   98  A    between atoms: _220  and  _223
REMARK   99  A    between atoms: _223  and  _224
REMARK  100  A    between atoms: _234  and  _236
REMARK  101  A    between atoms: _236  and  _237
REMARK  102  A    between atoms: _239  and  _241
REMARK  103  A    between atoms: _241  and  _242
REMARK  104  A    between atoms: _241  and  _244
REMARK  105  A    between atoms: _244  and  _245
REMARK  106  A    between atoms: _245  and  _246
REMARK  107  A    between atoms: _249  and  _251
REMARK  108  A    between atoms: _251  and  _252
REMARK  109  A    between atoms: _254  and  _256
REMARK  110  A    between atoms: _256  and  _257
REMARK  111  A    between atoms: _256  and  _259
REMARK  112  A    between atoms: _259  and  _260
REMARK  113  A    between atoms: _261  and  _263
REMARK  114  A    between atoms: _263  and  _264
REMARK  115  A    between atoms: _267  and  _269
REMARK  116  A    between atoms: _269  and  _270
REMARK  117  A    between atoms: _269  and  _272
REMARK  118  A    between atoms: _272  and  _273
REMARK  119  A    between atoms: _273  and  _274
REMARK  120  A    between atoms: _279  and  _281
REMARK  121  A    between atoms: _281  and  _282
REMARK  122  A    between atoms: _281  and  _284
REMARK  123  A    between atoms: _284  and  _285
REMARK  124  A    between atoms: _285  and  _286
REMARK  125  A    between atoms: _286  and  _287
REMARK  126  A    between atoms: _297  and  _298
REMARK  127  A    between atoms: _303  and  _305
REMARK  128  A    between atoms: _305  and  _306
REMARK  129  A    between atoms: _308  and  _310
REMARK  130  A    between atoms: _310  and  _311
REMARK  131  A    between atoms: _310  and  _313
REMARK  132  A    between atoms: _316  and  _318
REMARK  133  A    between atoms: _318  and  _319
REMARK  134  A    between atoms: _318  and  _321
REMARK  135  A    between atoms: _321  and  _322
REMARK  136  A    between atoms: _327  and  _328
REMARK                            x       y       z     vdW  Elec       q    Type
REMARK                         _______ _______ _______ _____ _____    ______ ____
ROOT
ATOM      1  CA  CYS A   1      50.171  31.550   8.599  0.00  0.00    +0.145 C 
ENDROOT
BRANCH   1   2
ATOM      2  N   CYS A   1      51.316  32.280   8.077  0.00  0.00    -0.238 NA
ATOM      3  H   CYS A   1      51.157  33.144   7.521  0.00  0.00    +0.142 HD
ENDBRANCH   1   2
BRANCH   1   4
ATOM      4  CB  CYS A   1      49.970  31.905  10.082  0.00  0.00    +0.094 C 
ATOM      5  SG  CYS A   1      50.894  30.908  11.275  0.00  0.00    -0.080 S 
ENDBRANCH   1   4
BRANCH   1   6
ATOM      6  C   CYS A   1      48.905  31.909   7.843  0.00  0.00    +0.225 C 
ATOM      7  O   CYS A   1      48.860  32.909   7.130  0.00  0.00    -0.287 OA
ENDBRANCH   1   6
TORSDOF 3
REMARK  Name = ../refined-set-2016/4cr9/4cr9_pocket.pdb
REMARK  136 active torsions:
REMARK  status: ('A' for Active; 'I' for Inactive)
REMARK    1  A    between atoms: _1  and  _3
REMARK    2  A    between atoms: _3  and  _4
REMARK    3  A    between atoms: _3  and  _6
REMARK    4  A    between atoms: _9  and  _11
REMARK    5  A    between atoms: _11  and  _12
REMARK    6  A    between atoms: _11  and  _14
REMARK    7  A    between atoms: _16  and  _18
REMARK    8  A    between atoms: _18  and  _19
REMARK    9  A    between atoms: _22  and  _24
REMARK   10  A    between atoms: _24  and  _25
REMARK   11  A    between atoms: _24  and  _27
REMARK   12  A    between atoms: _27  and  _28
REMARK   13  A    between atoms: _33  and  _35
REMARK   14  A    between atoms: _35  and  _36
REMARK   15  A    between atoms: _39  and  _41
REMARK   16  A    between atoms: _41  and  _42
REMARK   17  A    between atoms: _41  and  _44
REMARK   18  A    between atoms: _44  and  _45
REMARK   19  A    between atoms: _48  and  _50
REMARK   20  A    between atoms: _50  and  _51
REMARK   21  A    between atoms: _50  and  _53
REMARK   22  A    between atoms: _56  and  _58
REMARK   23  A    between atoms: _58  and  _59
REMARK   24  A    between atoms: _58  and  _61
REMARK   25  A    between atoms: _61  and  _62
REMARK   26  A    between atoms: _67  and  _68
REMARK   27  A    between atoms: _70  and  _72
REMARK   28  A    between atoms: _72  and  _73
REMARK   29  A    between atoms: _72  and  _75
REMARK   30  A    between atoms: _75  and  _76
REMARK   31  A    between atoms: _76  and  _77
REMARK   32  A    between atoms: _77  and  _78
REMARK   33  A    between atoms: _78  and  _79
REMARK   34  A    between atoms: _83  and  _85
REMARK   35  A    between atoms: _85  and  _86
REMARK   36  A    between atoms: _85  and  _88
REMARK   37  A    between atoms: _88  and  _89
REMARK   38  A    between atoms: _92  and  _94
REMARK   39  A    between atoms: _94  and  _95
REMARK   40  A    between atoms: _94  and  _97
REMARK   41  A    between atoms: _97  and  _98
REMARK   42  A    between atoms: _103  and  _104
REMARK   43  A    between atoms: _106  and  _108
REMARK   44  A    between atoms: _108  and  _109
REMARK   45  A    between atoms: _112  and  _114
REMARK   46  A    between atoms: _114  and  _115
REMARK   47  A    between atoms: _114  and  _117
REMARK   48  A    between atoms: _117  and  _118
REMARK   49  A    between atoms: _118  and  _119
REMARK   50  A    between atoms: _119  and  _120
REMARK   51  A    between atoms: _120  and  _121
REMARK   52  A    between atoms: _125  and  _127
REMARK   53  A    between atoms: _127  and  _128
REMARK   54  A    between atoms: _127  and  _130
REMARK   55  A    between atoms: _130  and  _131
REMARK   56  A    between atoms: _134  and  _136
REMARK   57  A    between atoms: _136  and  _137
REMARK   58  A    between atoms: _140  and  _142
REMARK   59  A    between atoms: _142  and  _143
REMARK   60  A    between atoms: _142  and  _145
REMARK   61  A    between atoms: _145  and  _146
REMARK   62  A    between atoms: _146  and  _260
REMARK   63  A    between atoms: _147  and  _149
REMARK   64  A    between atoms: _149  and  _150
REMARK   65  A    between atoms: _149  and  _152
REMARK   66  A    between atoms: _152  and  _153
REMARK   67  A    between atoms: _153  and  _154
REMARK   68  A    between atoms: _154  and  _155
REMARK   69  A    between atoms: _155  and  _156
REMARK   70  A    between atoms: _160  and  _162
REMARK   71  A    between atoms: _162  and  _163
REMARK   72  A    between atoms: _165  and  _167
REMARK   73  A    between atoms: _167  and  _168
REMARK   74  A    between atoms: _167  and  _170
REMARK   75  A    between atoms: _170  and  _171
REMARK   76  A    between atoms: _174  and  _176
REMARK   77  A    between atoms: _176  and  _177
REMARK   78  A    between atoms: _176  and  _179
REMARK   79  A    between atoms: _179  and  _180
REMARK   80  A    between atoms: _182  and  _184
REMARK   81  A    between atoms: _184  and  _185
REMARK   82  A    between atoms: _187  and  _189
REMARK   83  A    between atoms: _189  and  _190
REMARK   84  A    between atoms: _192  and  _194
REMARK   85  A    between atoms: _194  and  _195
REMARK   86  A    between atoms: _194  and  _197
REMARK   87  A    between atoms: _197  and  _198
REMARK   88  A    between atoms: _201  and  _203
REMARK   89  A    between atoms: _203  and  _204
REMARK   90  A    between atoms: _203  and  _206
REMARK   91  A    between atoms: _206  and  _207
REMARK   92  A    between atoms: _210  and  _212
REMARK   93  A    between atoms: _212  and  _213
REMARK   94  A    between atoms: _212  and  _215
REMARK   95  A    between atoms: _215  and  _216
REMARK   96  A    between atoms: _218  and  _220
REMARK   97  A    between atoms: _220  and  _221
REMARK   98  A    between atoms: _220  and  _223
REMARK   99  A    between atoms: _223  and  _224
REMARK  100  A    between atoms: _234  and  _236
REMARK  101  A    between atoms: _236  and  _237
REMARK  102  A    between atoms: _239  and  _241
REMARK  103  A    between atoms: _241  and  _242
REMARK  104  A    between atoms: _241  and  _244
REMARK  105  A    between atoms: _244  and  _245
REMARK  106  A    between atoms: _245  and  _246
REMARK  107  A    between atoms: _249  and  _251
REMARK  108  A    between atoms: _251  and  _252
REMARK  109  A    between atoms: _254  and  _256
REMARK  110  A    between atoms: _256  and  _257
REMARK  111  A    between atoms: _256  and  _259
REMARK  112  A    between atoms: _259  and  _260
REMARK  113  A    between atoms: _261  and  _263
REMARK  114  A    between atoms: _263  and  _264
REMARK  115  A    between atoms: _267  and  _269
REMARK  116  A    between atoms: _269  and  _270
REMARK  117  A    between atoms: _269  and  _272
REMARK  118  A    between atoms: _272  and  _273
REMARK  119  A    between atoms: _273  and  _274
REMARK  120  A    between atoms: _279  and  _281
REMARK  121  A    between atoms: _281  and  _282
REMARK  122  A    between atoms: _281  and  _284
REMARK  123  A    between atoms: _284  and  _285
REMARK  124  A    between atoms: _285  and  _286
REMARK  125  A    between atoms: _286  and  _287
REMARK  126  A    between atoms: _297  and  _298
REMARK  127  A    between atoms: _303  and  _305
REMARK  128  A    between atoms: _305  and  _306
REMARK  129  A    between atoms: _308  and  _310
REMARK  130  A    between atoms: _310  and  _311
REMARK  131  A    between atoms: _310  and  _313
REMARK  132  A    between atoms: _316  and  _318
REMARK  133  A    between atoms: _318  and  _319
REMARK  134  A    between atoms: _318  and  _321
REMARK  135  A    between atoms: _321  and  _322
REMARK  136  A    between atoms: _327  and  _328
REMARK                            x       y       z     vdW  Elec       q    Type
REMARK                         _______ _______ _______ _____ _____    ______ ____
ROOT
ATOM      1  CA  ALA A   1      46.372  30.955  15.920  0.00  0.00    +0.133 C 
ATOM      2  CB  ALA A   1      46.938  29.623  15.411  0.00  0.00    +0.027 C 
ENDROOT
BRANCH   1   3
ATOM      3  N   ALA A   1      45.806  31.743  14.819  0.00  0.00    -0.239 NA
ATOM      4  H   ALA A   1      46.326  31.799  13.920  0.00  0.00    +0.142 HD
ENDBRANCH   1   3
BRANCH   1   5
ATOM      5  C   ALA A   1      47.454  31.741  16.658  0.00  0.00    +0.224 C 
ATOM      6  O   ALA A   1      48.310  32.382  16.046  0.00  0.00    -0.287 OA
ENDBRANCH   1   5
TORSDOF 2
REMARK  Name = ../refined-set-2016/4cr9/4cr9_pocket.pdb
REMARK  136 active torsions:
REMARK  status: ('A' for Active; 'I' for Inactive)
REMARK    1  A    between atoms: _1  and  _3
REMARK    2  A    between atoms: _3  and  _4
REMARK    3  A    between atoms: _3  and  _6
REMARK    4  A    between atoms: _9  and  _11
REMARK    5  A    between atoms: _11  and  _12
REMARK    6  A    between atoms: _11  and  _14
REMARK    7  A    between atoms: _16  and  _18
REMARK    8  A    between atoms: _18  and  _19
REMARK    9  A    between atoms: _22  and  _24
REMARK   10  A    between atoms: _24  and  _25
REMARK   11  A    between atoms: _24  and  _27
REMARK   12  A    between atoms: _27  and  _28
REMARK   13  A    between atoms: _33  and  _35
REMARK   14  A    between atoms: _35  and  _36
REMARK   15  A    between atoms: _39  and  _41
REMARK   16  A    between atoms: _41  and  _42
REMARK   17  A    between atoms: _41  and  _44
REMARK   18  A    between atoms: _44  and  _45
REMARK   19  A    between atoms: _48  and  _50
REMARK   20  A    between atoms: _50  and  _51
REMARK   21  A    between atoms: _50  and  _53
REMARK   22  A    between atoms: _56  and  _58
REMARK   23  A    between atoms: _58  and  _59
REMARK   24  A    between atoms: _58  and  _61
REMARK   25  A    between atoms: _61  and  _62
REMARK   26  A    between atoms: _67  and  _68
REMARK   27  A    between atoms: _70  and  _72
REMARK   28  A    between atoms: _72  and  _73
REMARK   29  A    between atoms: _72  and  _75
REMARK   30  A    between atoms: _75  and  _76
REMARK   31  A    between atoms: _76  and  _77
REMARK   32  A    between atoms: _77  and  _78
REMARK   33  A    between atoms: _78  and  _79
REMARK   34  A    between atoms: _83  and  _85
REMARK   35  A    between atoms: _85  and  _86
REMARK   36  A    between atoms: _85  and  _88
REMARK   37  A    between atoms: _88  and  _89
REMARK   38  A    between atoms: _92  and  _94
REMARK   39  A    between atoms: _94  and  _95
REMARK   40  A    between atoms: _94  and  _97
REMARK   41  A    between atoms: _97  and  _98
REMARK   42  A    between atoms: _103  and  _104
REMARK   43  A    between atoms: _106  and  _108
REMARK   44  A    between atoms: _108  and  _109
REMARK   45  A    between atoms: _112  and  _114
REMARK   46  A    between atoms: _114  and  _115
REMARK   47  A    between atoms: _114  and  _117
REMARK   48  A    between atoms: _117  and  _118
REMARK   49  A    between atoms: _118  and  _119
REMARK   50  A    between atoms: _119  and  _120
REMARK   51  A    between atoms: _120  and  _121
REMARK   52  A    between atoms: _125  and  _127
REMARK   53  A    between atoms: _127  and  _128
REMARK   54  A    between atoms: _127  and  _130
REMARK   55  A    between atoms: _130  and  _131
REMARK   56  A    between atoms: _134  and  _136
REMARK   57  A    between atoms: _136  and  _137
REMARK   58  A    between atoms: _140  and  _142
REMARK   59  A    between atoms: _142  and  _143
REMARK   60  A    between atoms: _142  and  _145
REMARK   61  A    between atoms: _145  and  _146
REMARK   62  A    between atoms: _146  and  _260
REMARK   63  A    between atoms: _147  and  _149
REMARK   64  A    between atoms: _149  and  _150
REMARK   65  A    between atoms: _149  and  _152
REMARK   66  A    between atoms: _152  and  _153
REMARK   67  A    between atoms: _153  and  _154
REMARK   68  A    between atoms: _154  and  _155
REMARK   69  A    between atoms: _155  and  _156
REMARK   70  A    between atoms: _160  and  _162
REMARK   71  A    between atoms: _162  and  _163
REMARK   72  A    between atoms: _165  and  _167
REMARK   73  A    between atoms: _167  and  _168
REMARK   74  A    between atoms: _167  and  _170
REMARK   75  A    between atoms: _170  and  _171
REMARK   76  A    between atoms: _174  and  _176
REMARK   77  A    between atoms: _176  and  _177
REMARK   78  A    between atoms: _176  and  _179
REMARK   79  A    between atoms: _179  and  _180
REMARK   80  A    between atoms: _182  and  _184
REMARK   81  A    between atoms: _184  and  _185
REMARK   82  A    between atoms: _187  and  _189
REMARK   83  A    between atoms: _189  and  _190
REMARK   84  A    between atoms: _192  and  _194
REMARK   85  A    between atoms: _194  and  _195
REMARK   86  A    between atoms: _194  and  _197
REMARK   87  A    between atoms: _197  and  _198
REMARK   88  A    between atoms: _201  and  _203
REMARK   89  A    between atoms: _203  and  _204
REMARK   90  A    between atoms: _203  and  _206
REMARK   91  A    between atoms: _206  and  _207
REMARK   92  A    between atoms: _210  and  _212
REMARK   93  A    between atoms: _212  and  _213
REMARK   94  A    between atoms: _212  and  _215
REMARK   95  A    between atoms: _215  and  _216
REMARK   96  A    between atoms: _218  and  _220
REMARK   97  A    between atoms: _220  and  _221
REMARK   98  A    between atoms: _220  and  _223
REMARK   99  A    between atoms: _223  and  _224
REMARK  100  A    between atoms: _234  and  _236
REMARK  101  A    between atoms: _236  and  _237
REMARK  102  A    between atoms: _239  and  _241
REMARK  103  A    between atoms: _241  and  _242
REMARK  104  A    between atoms: _241  and  _244
REMARK  105  A    between atoms: _244  and  _245
REMARK  106  A    between atoms: _245  and  _246
REMARK  107  A    between atoms: _249  and  _251
REMARK  108  A    between atoms: _251  and  _252
REMARK  109  A    between atoms: _254  and  _256
REMARK  110  A    between atoms: _256  and  _257
REMARK  111  A    between atoms: _256  and  _259
REMARK  112  A    between atoms: _259  and  _260
REMARK  113  A    between atoms: _261  and  _263
REMARK  114  A    between atoms: _263  and  _264
REMARK  115  A    between atoms: _267  and  _269
REMARK  116  A    between atoms: _269  and  _270
REMARK  117  A    between atoms: _269  and  _272
REMARK  118  A    between atoms: _272  and  _273
REMARK  119  A    between atoms: _273  and  _274
REMARK  120  A    between atoms: _279  and  _281
REMARK  121  A    between atoms: _281  and  _282
REMARK  122  A    between atoms: _281  and  _284
REMARK  123  A    between atoms: _284  and  _285
REMARK  124  A    between atoms: _285  and  _286
REMARK  125  A    between atoms: _286  and  _287
REMARK  126  A    between atoms: _297  and  _298
REMARK  127  A    between atoms: _303  and  _305
REMARK  128  A    between atoms: _305  and  _306
REMARK  129  A    between atoms: _308  and  _310
REMARK  130  A    between atoms: _310  and  _311
REMARK  131  A    between atoms: _310  and  _313
REMARK  132  A    between atoms: _316  and  _318
REMARK  133  A    between atoms: _318  and  _319
REMARK  134  A    between atoms: _318  and  _321
REMARK  135  A    between atoms: _321  and  _322
REMARK  136  A    between atoms: _327  and  _328
REMARK                            x       y       z     vdW  Elec       q    Type
REMARK                         _______ _______ _______ _____ _____    ______ ____
ROOT
ATOM      1  CB  HIS A   1      51.372  28.548  18.065  0.00  0.00    +0.072 C 
ENDROOT
BRANCH   1   2
ATOM      2  CG  HIS A   1      51.077  27.905  16.748  0.00  0.00    +0.082 A 
ATOM      3  ND1 HIS A   1      49.856  27.340  16.458  0.00  0.00    -0.227 NA
ATOM      4  CE1 HIS A   1      49.892  26.815  15.245  0.00  0.00    +0.199 A 
ATOM      5  NE2 HIS A   1      51.094  27.016  14.740  0.00  0.00    -0.221 NA
ATOM      6  CD2 HIS A   1      51.858  27.688  15.663  0.00  0.00    +0.115 A 
ENDBRANCH   1   2
BRANCH   1   7
ATOM      7  CA  HIS A   1      51.361  30.080  18.048  0.00  0.00    +0.139 C 
BRANCH   7   8
ATOM      8  N   HIS A   1      50.007  30.616  18.222  0.00  0.00    -0.239 NA
ATOM      9  H   HIS A   1      49.183  29.993  18.106  0.00  0.00    +0.142 HD
ENDBRANCH   7   8
BRANCH   7  10
ATOM     10  C   HIS A   1      52.075  30.650  16.817  0.00  0.00    +0.224 C 
ATOM     11  O   HIS A   1      53.294  30.589  16.731  0.00  0.00    -0.287 OA
ENDBRANCH   7  10
ENDBRANCH   1   7
TORSDOF 4
REMARK  Name = ../refined-set-2016/4cr9/4cr9_pocket.pdb
REMARK  136 active torsions:
REMARK  status: ('A' for Active; 'I' for Inactive)
REMARK    1  A    between atoms: _1  and  _3
REMARK    2  A    between atoms: _3  and  _4
REMARK    3  A    between atoms: _3  and  _6
REMARK    4  A    between atoms: _9  and  _11
REMARK    5  A    between atoms: _11  and  _12
REMARK    6  A    between atoms: _11  and  _14
REMARK    7  A    between atoms: _16  and  _18
REMARK    8  A    between atoms: _18  and  _19
REMARK    9  A    between atoms: _22  and  _24
REMARK   10  A    between atoms: _24  and  _25
REMARK   11  A    between atoms: _24  and  _27
REMARK   12  A    between atoms: _27  and  _28
REMARK   13  A    between atoms: _33  and  _35
REMARK   14  A    between atoms: _35  and  _36
REMARK   15  A    between atoms: _39  and  _41
REMARK   16  A    between atoms: _41  and  _42
REMARK   17  A    between atoms: _41  and  _44
REMARK   18  A    between atoms: _44  and  _45
REMARK   19  A    between atoms: _48  and  _50
REMARK   20  A    between atoms: _50  and  _51
REMARK   21  A    between atoms: _50  and  _53
REMARK   22  A    between atoms: _56  and  _58
REMARK   23  A    between atoms: _58  and  _59
REMARK   24  A    between atoms: _58  and  _61
REMARK   25  A    between atoms: _61  and  _62
REMARK   26  A    between atoms: _67  and  _68
REMARK   27  A    between atoms: _70  and  _72
REMARK   28  A    between atoms: _72  and  _73
REMARK   29  A    between atoms: _72  and  _75
REMARK   30  A    between atoms: _75  and  _76
REMARK   31  A    between atoms: _76  and  _77
REMARK   32  A    between atoms: _77  and  _78
REMARK   33  A    between atoms: _78  and  _79
REMARK   34  A    between atoms: _83  and  _85
REMARK   35  A    between atoms: _85  and  _86
REMARK   36  A    between atoms: _85  and  _88
REMARK   37  A    between atoms: _88  and  _89
REMARK   38  A    between atoms: _92  and  _94
REMARK   39  A    between atoms: _94  and  _95
REMARK   40  A    between atoms: _94  and  _97
REMARK   41  A    between atoms: _97  and  _98
REMARK   42  A    between atoms: _103  and  _104
REMARK   43  A    between atoms: _106  and  _108
REMARK   44  A    between atoms: _108  and  _109
REMARK   45  A    between atoms: _112  and  _114
REMARK   46  A    between atoms: _114  and  _115
REMARK   47  A    between atoms: _114  and  _117
REMARK   48  A    between atoms: _117  and  _118
REMARK   49  A    between atoms: _118  and  _119
REMARK   50  A    between atoms: _119  and  _120
REMARK   51  A    between atoms: _120  and  _121
REMARK   52  A    between atoms: _125  and  _127
REMARK   53  A    between atoms: _127  and  _128
REMARK   54  A    between atoms: _127  and  _130
REMARK   55  A    between atoms: _130  and  _131
REMARK   56  A    between atoms: _134  and  _136
REMARK   57  A    between atoms: _136  and  _137
REMARK   58  A    between atoms: _140  and  _142
REMARK   59  A    between atoms: _142  and  _143
REMARK   60  A    between atoms: _142  and  _145
REMARK   61  A    between atoms: _145  and  _146
REMARK   62  A    between atoms: _146  and  _260
REMARK   63  A    between atoms: _147  and  _149
REMARK   64  A    between atoms: _149  and  _150
REMARK   65  A    between atoms: _149  and  _152
REMARK   66  A    between atoms: _152  and  _153
REMARK   67  A    between atoms: _153  and  _154
REMARK   68  A    between atoms: _154  and  _155
REMARK   69  A    between atoms: _155  and  _156
REMARK   70  A    between atoms: _160  and  _162
REMARK   71  A    between atoms: _162  and  _163
REMARK   72  A    between atoms: _165  and  _167
REMARK   73  A    between atoms: _167  and  _168
REMARK   74  A    between atoms: _167  and  _170
REMARK   75  A    between atoms: _170  and  _171
REMARK   76  A    between atoms: _174  and  _176
REMARK   77  A    between atoms: _176  and  _177
REMARK   78  A    between atoms: _176  and  _179
REMARK   79  A    between atoms: _179  and  _180
REMARK   80  A    between atoms: _182  and  _184
REMARK   81  A    between atoms: _184  and  _185
REMARK   82  A    between atoms: _187  and  _189
REMARK   83  A    between atoms: _189  and  _190
REMARK   84  A    between atoms: _192  and  _194
REMARK   85  A    between atoms: _194  and  _195
REMARK   86  A    between atoms: _194  and  _197
REMARK   87  A    between atoms: _197  and  _198
REMARK   88  A    between atoms: _201  and  _203
REMARK   89  A    between atoms: _203  and  _204
REMARK   90  A    between atoms: _203  and  _206
REMARK   91  A    between atoms: _206  and  _207
REMARK   92  A    between atoms: _210  and  _212
REMARK   93  A    between atoms: _212  and  _213
REMARK   94  A    between atoms: _212  and  _215
REMARK   95  A    between atoms: _215  and  _216
REMARK   96  A    between atoms: _218  and  _220
REMARK   97  A    between atoms: _220  and  _221
REMARK   98  A    between atoms: _220  and  _223
REMARK   99  A    between atoms: _223  and  _224
REMARK  100  A    between atoms: _234  and  _236
REMARK  101  A    between atoms: _236  and  _237
REMARK  102  A    between atoms: _239  and  _241
REMARK  103  A    between atoms: _241  and  _242
REMARK  104  A    between atoms: _241  and  _244
REMARK  105  A    between atoms: _244  and  _245
REMARK  106  A    between atoms: _245  and  _246
REMARK  107  A    between atoms: _249  and  _251
REMARK  108  A    between atoms: _251  and  _252
REMARK  109  A    between atoms: _254  and  _256
REMARK  110  A    between atoms: _256  and  _257
REMARK  111  A    between atoms: _256  and  _259
REMARK  112  A    between atoms: _259  and  _260
REMARK  113  A    between atoms: _261  and  _263
REMARK  114  A    between atoms: _263  and  _264
REMARK  115  A    between atoms: _267  and  _269
REMARK  116  A    between atoms: _269  and  _270
REMARK  117  A    between atoms: _269  and  _272
REMARK  118  A    between atoms: _272  and  _273
REMARK  119  A    between atoms: _273  and  _274
REMARK  120  A    between atoms: _279  and  _281
REMARK  121  A    between atoms: _281  and  _282
REMARK  122  A    between atoms: _281  and  _284
REMARK  123  A    between atoms: _284  and  _285
REMARK  124  A    between atoms: _285  and  _286
REMARK  125  A    between atoms: _286  and  _287
REMARK  126  A    between atoms: _297  and  _298
REMARK  127  A    between atoms: _303  and  _305
REMARK  128  A    between atoms: _305  and  _306
REMARK  129  A    between atoms: _308  and  _310
REMARK  130  A    between atoms: _310  and  _311
REMARK  131  A    between atoms: _310  and  _313
REMARK  132  A    between atoms: _316  and  _318
REMARK  133  A    between atoms: _318  and  _319
REMARK  134  A    between atoms: _318  and  _321
REMARK  135  A    between atoms: _321  and  _322
REMARK  136  A    between atoms: _327  and  _328
REMARK                            x       y       z     vdW  Elec       q    Type
REMARK                         _______ _______ _______ _____ _____    ______ ____
ROOT
ATOM      1  CA  ALA A   1      49.454  24.956  20.752  0.00  0.00    +0.133 C 
ATOM      2  CB  ALA A   1      49.942  24.642  19.348  0.00  0.00    +0.027 C 
ENDROOT
BRANCH   1   3
ATOM      3  N   ALA A   1      50.524  25.566  21.526  0.00  0.00    -0.239 NA
ATOM      4  H   ALA A   1      51.416  25.805  21.048  0.00  0.00    +0.142 HD
ENDBRANCH   1   3
BRANCH   1   5
ATOM      5  C   ALA A   1      48.913  23.698  21.422  0.00  0.00    +0.224 C 
ATOM      6  O   ALA A   1      47.709  23.534  21.568  0.00  0.00    -0.287 OA
ENDBRANCH   1   5
TORSDOF 2
REMARK  Name = ../refined-set-2016/4cr9/4cr9_pocket.pdb
REMARK  136 active torsions:
REMARK  status: ('A' for Active; 'I' for Inactive)
REMARK    1  A    between atoms: _1  and  _3
REMARK    2  A    between atoms: _3  and  _4
REMARK    3  A    between atoms: _3  and  _6
REMARK    4  A    between atoms: _9  and  _11
REMARK    5  A    between atoms: _11  and  _12
REMARK    6  A    between atoms: _11  and  _14
REMARK    7  A    between atoms: _16  and  _18
REMARK    8  A    between atoms: _18  and  _19
REMARK    9  A    between atoms: _22  and  _24
REMARK   10  A    between atoms: _24  and  _25
REMARK   11  A    between atoms: _24  and  _27
REMARK   12  A    between atoms: _27  and  _28
REMARK   13  A    between atoms: _33  and  _35
REMARK   14  A    between atoms: _35  and  _36
REMARK   15  A    between atoms: _39  and  _41
REMARK   16  A    between atoms: _41  and  _42
REMARK   17  A    between atoms: _41  and  _44
REMARK   18  A    between atoms: _44  and  _45
REMARK   19  A    between atoms: _48  and  _50
REMARK   20  A    between atoms: _50  and  _51
REMARK   21  A    between atoms: _50  and  _53
REMARK   22  A    between atoms: _56  and  _58
REMARK   23  A    between atoms: _58  and  _59
REMARK   24  A    between atoms: _58  and  _61
REMARK   25  A    between atoms: _61  and  _62
REMARK   26  A    between atoms: _67  and  _68
REMARK   27  A    between atoms: _70  and  _72
REMARK   28  A    between atoms: _72  and  _73
REMARK   29  A    between atoms: _72  and  _75
REMARK   30  A    between atoms: _75  and  _76
REMARK   31  A    between atoms: _76  and  _77
REMARK   32  A    between atoms: _77  and  _78
REMARK   33  A    between atoms: _78  and  _79
REMARK   34  A    between atoms: _83  and  _85
REMARK   35  A    between atoms: _85  and  _86
REMARK   36  A    between atoms: _85  and  _88
REMARK   37  A    between atoms: _88  and  _89
REMARK   38  A    between atoms: _92  and  _94
REMARK   39  A    between atoms: _94  and  _95
REMARK   40  A    between atoms: _94  and  _97
REMARK   41  A    between atoms: _97  and  _98
REMARK   42  A    between atoms: _103  and  _104
REMARK   43  A    between atoms: _106  and  _108
REMARK   44  A    between atoms: _108  and  _109
REMARK   45  A    between atoms: _112  and  _114
REMARK   46  A    between atoms: _114  and  _115
REMARK   47  A    between atoms: _114  and  _117
REMARK   48  A    between atoms: _117  and  _118
REMARK   49  A    between atoms: _118  and  _119
REMARK   50  A    between atoms: _119  and  _120
REMARK   51  A    between atoms: _120  and  _121
REMARK   52  A    between atoms: _125  and  _127
REMARK   53  A    between atoms: _127  and  _128
REMARK   54  A    between atoms: _127  and  _130
REMARK   55  A    between atoms: _130  and  _131
REMARK   56  A    between atoms: _134  and  _136
REMARK   57  A    between atoms: _136  and  _137
REMARK   58  A    between atoms: _140  and  _142
REMARK   59  A    between atoms: _142  and  _143
REMARK   60  A    between atoms: _142  and  _145
REMARK   61  A    between atoms: _145  and  _146
REMARK   62  A    between atoms: _146  and  _260
REMARK   63  A    between atoms: _147  and  _149
REMARK   64  A    between atoms: _149  and  _150
REMARK   65  A    between atoms: _149  and  _152
REMARK   66  A    between atoms: _152  and  _153
REMARK   67  A    between atoms: _153  and  _154
REMARK   68  A    between atoms: _154  and  _155
REMARK   69  A    between atoms: _155  and  _156
REMARK   70  A    between atoms: _160  and  _162
REMARK   71  A    between atoms: _162  and  _163
REMARK   72  A    between atoms: _165  and  _167
REMARK   73  A    between atoms: _167  and  _168
REMARK   74  A    between atoms: _167  and  _170
REMARK   75  A    between atoms: _170  and  _171
REMARK   76  A    between atoms: _174  and  _176
REMARK   77  A    between atoms: _176  and  _177
REMARK   78  A    between atoms: _176  and  _179
REMARK   79  A    between atoms: _179  and  _180
REMARK   80  A    between atoms: _182  and  _184
REMARK   81  A    between atoms: _184  and  _185
REMARK   82  A    between atoms: _187  and  _189
REMARK   83  A    between atoms: _189  and  _190
REMARK   84  A    between atoms: _192  and  _194
REMARK   85  A    between atoms: _194  and  _195
REMARK   86  A    between atoms: _194  and  _197
REMARK   87  A    between atoms: _197  and  _198
REMARK   88  A    between atoms: _201  and  _203
REMARK   89  A    between atoms: _203  and  _204
REMARK   90  A    between atoms: _203  and  _206
REMARK   91  A    between atoms: _206  and  _207
REMARK   92  A    between atoms: _210  and  _212
REMARK   93  A    between atoms: _212  and  _213
REMARK   94  A    between atoms: _212  and  _215
REMARK   95  A    between atoms: _215  and  _216
REMARK   96  A    between atoms: _218  and  _220
REMARK   97  A    between atoms: _220  and  _221
REMARK   98  A    between atoms: _220  and  _223
REMARK   99  A    between atoms: _223  and  _224
REMARK  100  A    between atoms: _234  and  _236
REMARK  101  A    between atoms: _236  and  _237
REMARK  102  A    between atoms: _239  and  _241
REMARK  103  A    between atoms: _241  and  _242
REMARK  104  A    between atoms: _241  and  _244
REMARK  105  A    between atoms: _244  and  _245
REMARK  106  A    between atoms: _245  and  _246
REMARK  107  A    between atoms: _249  and  _251
REMARK  108  A    between atoms: _251  and  _252
REMARK  109  A    between atoms: _254  and  _256
REMARK  110  A    between atoms: _256  and  _257
REMARK  111  A    between atoms: _256  and  _259
REMARK  112  A    between atoms: _259  and  _260
REMARK  113  A    between atoms: _261  and  _263
REMARK  114  A    between atoms: _263  and  _264
REMARK  115  A    between atoms: _267  and  _269
REMARK  116  A    between atoms: _269  and  _270
REMARK  117  A    between atoms: _269  and  _272
REMARK  118  A    between atoms: _272  and  _273
REMARK  119  A    between atoms: _273  and  _274
REMARK  120  A    between atoms: _279  and  _281
REMARK  121  A    between atoms: _281  and  _282
REMARK  122  A    between atoms: _281  and  _284
REMARK  123  A    between atoms: _284  and  _285
REMARK  124  A    between atoms: _285  and  _286
REMARK  125  A    between atoms: _286  and  _287
REMARK  126  A    between atoms: _297  and  _298
REMARK  127  A    between atoms: _303  and  _305
REMARK  128  A    between atoms: _305  and  _306
REMARK  129  A    between atoms: _308  and  _310
REMARK  130  A    between atoms: _310  and  _311
REMARK  131  A    between atoms: _310  and  _313
REMARK  132  A    between atoms: _316  and  _318
REMARK  133  A    between atoms: _318  and  _319
REMARK  134  A    between atoms: _318  and  _321
REMARK  135  A    between atoms: _321  and  _322
REMARK  136  A    between atoms: _327  and  _328
REMARK                            x       y       z     vdW  Elec       q    Type
REMARK                         _______ _______ _______ _____ _____    ______ ____
ROOT
ATOM      1  CA  ASP A   1      45.687  28.646  20.523  0.00  0.00    +0.144 C 
ENDROOT
BRANCH   1   2
ATOM      2  N   ASP A   1      44.922  28.265  21.711  0.00  0.00    -0.239 NA
ATOM      3  H   ASP A   1      44.414  27.357  21.710  0.00  0.00    +0.142 HD
ENDBRANCH   1   2
BRANCH   1   4
ATOM      4  C   ASP A   1      44.800  29.507  19.633  0.00  0.00    +0.225 C 
ATOM      5  O   ASP A   1      44.294  29.078  18.588  0.00  0.00    -0.287 OA
ENDBRANCH   1   4
BRANCH   1   6
ATOM      6  CB  ASP A   1      46.206  27.402  19.789  0.00  0.00    +0.139 C 
BRANCH   6   7
ATOM      7  CG  ASP A   1      47.286  27.732  18.756  0.00  0.00    +0.367 C 
ATOM      8  OD2 ASP A   1      47.745  28.889  18.717  0.00  0.00    -0.246 OA
ATOM      9  OD1 ASP A   1      47.675  26.833  17.986  0.00  0.00    -0.246 OA
ENDBRANCH   6   7
ENDBRANCH   1   6
TORSDOF 4
REMARK  Name = ../refined-set-2016/4cr9/4cr9_pocket.pdb
REMARK  136 active torsions:
REMARK  status: ('A' for Active; 'I' for Inactive)
REMARK    1  A    between atoms: _1  and  _3
REMARK    2  A    between atoms: _3  and  _4
REMARK    3  A    between atoms: _3  and  _6
REMARK    4  A    between atoms: _9  and  _11
REMARK    5  A    between atoms: _11  and  _12
REMARK    6  A    between atoms: _11  and  _14
REMARK    7  A    between atoms: _16  and  _18
REMARK    8  A    between atoms: _18  and  _19
REMARK    9  A    between atoms: _22  and  _24
REMARK   10  A    between atoms: _24  and  _25
REMARK   11  A    between atoms: _24  and  _27
REMARK   12  A    between atoms: _27  and  _28
REMARK   13  A    between atoms: _33  and  _35
REMARK   14  A    between atoms: _35  and  _36
REMARK   15  A    between atoms: _39  and  _41
REMARK   16  A    between atoms: _41  and  _42
REMARK   17  A    between atoms: _41  and  _44
REMARK   18  A    between atoms: _44  and  _45
REMARK   19  A    between atoms: _48  and  _50
REMARK   20  A    between atoms: _50  and  _51
REMARK   21  A    between atoms: _50  and  _53
REMARK   22  A    between atoms: _56  and  _58
REMARK   23  A    between atoms: _58  and  _59
REMARK   24  A    between atoms: _58  and  _61
REMARK   25  A    between atoms: _61  and  _62
REMARK   26  A    between atoms: _67  and  _68
REMARK   27  A    between atoms: _70  and  _72
REMARK   28  A    between atoms: _72  and  _73
REMARK   29  A    between atoms: _72  and  _75
REMARK   30  A    between atoms: _75  and  _76
REMARK   31  A    between atoms: _76  and  _77
REMARK   32  A    between atoms: _77  and  _78
REMARK   33  A    between atoms: _78  and  _79
REMARK   34  A    between atoms: _83  and  _85
REMARK   35  A    between atoms: _85  and  _86
REMARK   36  A    between atoms: _85  and  _88
REMARK   37  A    between atoms: _88  and  _89
REMARK   38  A    between atoms: _92  and  _94
REMARK   39  A    between atoms: _94  and  _95
REMARK   40  A    between atoms: _94  and  _97
REMARK   41  A    between atoms: _97  and  _98
REMARK   42  A    between atoms: _103  and  _104
REMARK   43  A    between atoms: _106  and  _108
REMARK   44  A    between atoms: _108  and  _109
REMARK   45  A    between atoms: _112  and  _114
REMARK   46  A    between atoms: _114  and  _115
REMARK   47  A    between atoms: _114  and  _117
REMARK   48  A    between atoms: _117  and  _118
REMARK   49  A    between atoms: _118  and  _119
REMARK   50  A    between atoms: _119  and  _120
REMARK   51  A    between atoms: _120  and  _121
REMARK   52  A    between atoms: _125  and  _127
REMARK   53  A    between atoms: _127  and  _128
REMARK   54  A    between atoms: _127  and  _130
REMARK   55  A    between atoms: _130  and  _131
REMARK   56  A    between atoms: _134  and  _136
REMARK   57  A    between atoms: _136  and  _137
REMARK   58  A    between atoms: _140  and  _142
REMARK   59  A    between atoms: _142  and  _143
REMARK   60  A    between atoms: _142  and  _145
REMARK   61  A    between atoms: _145  and  _146
REMARK   62  A    between atoms: _146  and  _260
REMARK   63  A    between atoms: _147  and  _149
REMARK   64  A    between atoms: _149  and  _150
REMARK   65  A    between atoms: _149  and  _152
REMARK   66  A    between atoms: _152  and  _153
REMARK   67  A    between atoms: _153  and  _154
REMARK   68  A    between atoms: _154  and  _155
REMARK   69  A    between atoms: _155  and  _156
REMARK   70  A    between atoms: _160  and  _162
REMARK   71  A    between atoms: _162  and  _163
REMARK   72  A    between atoms: _165  and  _167
REMARK   73  A    between atoms: _167  and  _168
REMARK   74  A    between atoms: _167  and  _170
REMARK   75  A    between atoms: _170  and  _171
REMARK   76  A    between atoms: _174  and  _176
REMARK   77  A    between atoms: _176  and  _177
REMARK   78  A    between atoms: _176  and  _179
REMARK   79  A    between atoms: _179  and  _180
REMARK   80  A    between atoms: _182  and  _184
REMARK   81  A    between atoms: _184  and  _185
REMARK   82  A    between atoms: _187  and  _189
REMARK   83  A    between atoms: _189  and  _190
REMARK   84  A    between atoms: _192  and  _194
REMARK   85  A    between atoms: _194  and  _195
REMARK   86  A    between atoms: _194  and  _197
REMARK   87  A    between atoms: _197  and  _198
REMARK   88  A    between atoms: _201  and  _203
REMARK   89  A    between atoms: _203  and  _204
REMARK   90  A    between atoms: _203  and  _206
REMARK   91  A    between atoms: _206  and  _207
REMARK   92  A    between atoms: _210  and  _212
REMARK   93  A    between atoms: _212  and  _213
REMARK   94  A    between atoms: _212  and  _215
REMARK   95  A    between atoms: _215  and  _216
REMARK   96  A    between atoms: _218  and  _220
REMARK   97  A    between atoms: _220  and  _221
REMARK   98  A    between atoms: _220  and  _223
REMARK   99  A    between atoms: _223  and  _224
REMARK  100  A    between atoms: _234  and  _236
REMARK  101  A    between atoms: _236  and  _237
REMARK  102  A    between atoms: _239  and  _241
REMARK  103  A    between atoms: _241  and  _242
REMARK  104  A    between atoms: _241  and  _244
REMARK  105  A    between atoms: _244  and  _245
REMARK  106  A    between atoms: _245  and  _246
REMARK  107  A    between atoms: _249  and  _251
REMARK  108  A    between atoms: _251  and  _252
REMARK  109  A    between atoms: _254  and  _256
REMARK  110  A    between atoms: _256  and  _257
REMARK  111  A    between atoms: _256  and  _259
REMARK  112  A    between atoms: _259  and  _260
REMARK  113  A    between atoms: _261  and  _263
REMARK  114  A    between atoms: _263  and  _264
REMARK  115  A    between atoms: _267  and  _269
REMARK  116  A    between atoms: _269  and  _270
REMARK  117  A    between atoms: _269  and  _272
REMARK  118  A    between atoms: _272  and  _273
REMARK  119  A    between atoms: _273  and  _274
REMARK  120  A    between atoms: _279  and  _281
REMARK  121  A    between atoms: _281  and  _282
REMARK  122  A    between atoms: _281  and  _284
REMARK  123  A    between atoms: _284  and  _285
REMARK  124  A    between atoms: _285  and  _286
REMARK  125  A    between atoms: _286  and  _287
REMARK  126  A    between atoms: _297  and  _298
REMARK  127  A    between atoms: _303  and  _305
REMARK  128  A    between atoms: _305  and  _306
REMARK  129  A    between atoms: _308  and  _310
REMARK  130  A    between atoms: _310  and  _311
REMARK  131  A    between atoms: _310  and  _313
REMARK  132  A    between atoms: _316  and  _318
REMARK  133  A    between atoms: _318  and  _319
REMARK  134  A    between atoms: _318  and  _321
REMARK  135  A    between atoms: _321  and  _322
REMARK  136  A    between atoms: _327  and  _328
REMARK                            x       y       z     vdW  Elec       q    Type
REMARK                         _______ _______ _______ _____ _____    ______ ____
ROOT
ATOM      1  CA  VAL A   1      40.511  22.658   5.963  0.00  0.00    +0.133 C 
ENDROOT
BRANCH   1   2
ATOM      2  CB  VAL A   1      41.432  21.785   6.851  0.00  0.00    +0.023 C 
ATOM      3  CG2 VAL A   1      42.535  22.623   7.495  0.00  0.00    +0.002 C 
ATOM      4  CG1 VAL A   1      42.034  20.626   6.075  0.00  0.00    +0.002 C 
ENDBRANCH   1   2
BRANCH   1   5
ATOM      5  N   VAL A   1      39.316  21.937   5.507  0.00  0.00    -0.239 NA
ATOM      6  H   VAL A   1      39.430  21.017   5.036  0.00  0.00    +0.142 HD
ENDBRANCH   1   5
BRANCH   1   7
ATOM      7  C   VAL A   1      41.247  23.205   4.744  0.00  0.00    +0.224 C 
ATOM      8  O   VAL A   1      41.379  22.522   3.726  0.00  0.00    -0.287 OA
ENDBRANCH   1   7
TORSDOF 3
REMARK  Name = ../refined-set-2016/4cr9/4cr9_pocket.pdb
REMARK  136 active torsions:
REMARK  status: ('A' for Active; 'I' for Inactive)
REMARK    1  A    between atoms: _1  and  _3
REMARK    2  A    between atoms: _3  and  _4
REMARK    3  A    between atoms: _3  and  _6
REMARK    4  A    between atoms: _9  and  _11
REMARK    5  A    between atoms: _11  and  _12
REMARK    6  A    between atoms: _11  and  _14
REMARK    7  A    between atoms: _16  and  _18
REMARK    8  A    between atoms: _18  and  _19
REMARK    9  A    between atoms: _22  and  _24
REMARK   10  A    between atoms: _24  and  _25
REMARK   11  A    between atoms: _24  and  _27
REMARK   12  A    between atoms: _27  and  _28
REMARK   13  A    between atoms: _33  and  _35
REMARK   14  A    between atoms: _35  and  _36
REMARK   15  A    between atoms: _39  and  _41
REMARK   16  A    between atoms: _41  and  _42
REMARK   17  A    between atoms: _41  and  _44
REMARK   18  A    between atoms: _44  and  _45
REMARK   19  A    between atoms: _48  and  _50
REMARK   20  A    between atoms: _50  and  _51
REMARK   21  A    between atoms: _50  and  _53
REMARK   22  A    between atoms: _56  and  _58
REMARK   23  A    between atoms: _58  and  _59
REMARK   24  A    between atoms: _58  and  _61
REMARK   25  A    between atoms: _61  and  _62
REMARK   26  A    between atoms: _67  and  _68
REMARK   27  A    between atoms: _70  and  _72
REMARK   28  A    between atoms: _72  and  _73
REMARK   29  A    between atoms: _72  and  _75
REMARK   30  A    between atoms: _75  and  _76
REMARK   31  A    between atoms: _76  and  _77
REMARK   32  A    between atoms: _77  and  _78
REMARK   33  A    between atoms: _78  and  _79
REMARK   34  A    between atoms: _83  and  _85
REMARK   35  A    between atoms: _85  and  _86
REMARK   36  A    between atoms: _85  and  _88
REMARK   37  A    between atoms: _88  and  _89
REMARK   38  A    between atoms: _92  and  _94
REMARK   39  A    between atoms: _94  and  _95
REMARK   40  A    between atoms: _94  and  _97
REMARK   41  A    between atoms: _97  and  _98
REMARK   42  A    between atoms: _103  and  _104
REMARK   43  A    between atoms: _106  and  _108
REMARK   44  A    between atoms: _108  and  _109
REMARK   45  A    between atoms: _112  and  _114
REMARK   46  A    between atoms: _114  and  _115
REMARK   47  A    between atoms: _114  and  _117
REMARK   48  A    between atoms: _117  and  _118
REMARK   49  A    between atoms: _118  and  _119
REMARK   50  A    between atoms: _119  and  _120
REMARK   51  A    between atoms: _120  and  _121
REMARK   52  A    between atoms: _125  and  _127
REMARK   53  A    between atoms: _127  and  _128
REMARK   54  A    between atoms: _127  and  _130
REMARK   55  A    between atoms: _130  and  _131
REMARK   56  A    between atoms: _134  and  _136
REMARK   57  A    between atoms: _136  and  _137
REMARK   58  A    between atoms: _140  and  _142
REMARK   59  A    between atoms: _142  and  _143
REMARK   60  A    between atoms: _142  and  _145
REMARK   61  A    between atoms: _145  and  _146
REMARK   62  A    between atoms: _146  and  _260
REMARK   63  A    between atoms: _147  and  _149
REMARK   64  A    between atoms: _149  and  _150
REMARK   65  A    between atoms: _149  and  _152
REMARK   66  A    between atoms: _152  and  _153
REMARK   67  A    between atoms: _153  and  _154
REMARK   68  A    between atoms: _154  and  _155
REMARK   69  A    between atoms: _155  and  _156
REMARK   70  A    between atoms: _160  and  _162
REMARK   71  A    between atoms: _162  and  _163
REMARK   72  A    between atoms: _165  and  _167
REMARK   73  A    between atoms: _167  and  _168
REMARK   74  A    between atoms: _167  and  _170
REMARK   75  A    between atoms: _170  and  _171
REMARK   76  A    between atoms: _174  and  _176
REMARK   77  A    between atoms: _176  and  _177
REMARK   78  A    between atoms: _176  and  _179
REMARK   79  A    between atoms: _179  and  _180
REMARK   80  A    between atoms: _182  and  _184
REMARK   81  A    between atoms: _184  and  _185
REMARK   82  A    between atoms: _187  and  _189
REMARK   83  A    between atoms: _189  and  _190
REMARK   84  A    between atoms: _192  and  _194
REMARK   85  A    between atoms: _194  and  _195
REMARK   86  A    between atoms: _194  and  _197
REMARK   87  A    between atoms: _197  and  _198
REMARK   88  A    between atoms: _201  and  _203
REMARK   89  A    between atoms: _203  and  _204
REMARK   90  A    between atoms: _203  and  _206
REMARK   91  A    between atoms: _206  and  _207
REMARK   92  A    between atoms: _210  and  _212
REMARK   93  A    between atoms: _212  and  _213
REMARK   94  A    between atoms: _212  and  _215
REMARK   95  A    between atoms: _215  and  _216
REMARK   96  A    between atoms: _218  and  _220
REMARK   97  A    between atoms: _220  and  _221
REMARK   98  A    between atoms: _220  and  _223
REMARK   99  A    between atoms: _223  and  _224
REMARK  100  A    between atoms: _234  and  _236
REMARK  101  A    between atoms: _236  and  _237
REMARK  102  A    between atoms: _239  and  _241
REMARK  103  A    between atoms: _241  and  _242
REMARK  104  A    between atoms: _241  and  _244
REMARK  105  A    between atoms: _244  and  _245
REMARK  106  A    between atoms: _245  and  _246
REMARK  107  A    between atoms: _249  and  _251
REMARK  108  A    between atoms: _251  and  _252
REMARK  109  A    between atoms: _254  and  _256
REMARK  110  A    between atoms: _256  and  _257
REMARK  111  A    between atoms: _256  and  _259
REMARK  112  A    between atoms: _259  and  _260
REMARK  113  A    between atoms: _261  and  _263
REMARK  114  A    between atoms: _263  and  _264
REMARK  115  A    between atoms: _267  and  _269
REMARK  116  A    between atoms: _269  and  _270
REMARK  117  A    between atoms: _269  and  _272
REMARK  118  A    between atoms: _272  and  _273
REMARK  119  A    between atoms: _273  and  _274
REMARK  120  A    between atoms: _279  and  _281
REMARK  121  A    between atoms: _281  and  _282
REMARK  122  A    between atoms: _281  and  _284
REMARK  123  A    between atoms: _284  and  _285
REMARK  124  A    between atoms: _285  and  _286
REMARK  125  A    between atoms: _286  and  _287
REMARK  126  A    between atoms: _297  and  _298
REMARK  127  A    between atoms: _303  and  _305
REMARK  128  A    between atoms: _305  and  _306
REMARK  129  A    between atoms: _308  and  _310
REMARK  130  A    between atoms: _310  and  _311
REMARK  131  A    between atoms: _310  and  _313
REMARK  132  A    between atoms: _316  and  _318
REMARK  133  A    between atoms: _318  and  _319
REMARK  134  A    between atoms: _318  and  _321
REMARK  135  A    between atoms: _321  and  _322
REMARK  136  A    between atoms: _327  and  _328
REMARK                            x       y       z     vdW  Elec       q    Type
REMARK                         _______ _______ _______ _____ _____    ______ ____
ROOT
ATOM      1  CG  TYR A   1      55.269  22.179   4.626  0.00  0.00    -0.020 A 
ATOM      2  CD2 TYR A   1      56.309  21.611   5.360  0.00  0.00    -0.001 A 
ATOM      3  CE2 TYR A   1      57.432  22.346   5.712  0.00  0.00    +0.036 A 
ATOM      4  CZ  TYR A   1      57.532  23.666   5.325  0.00  0.00    +0.134 A 
ATOM      5  CE1 TYR A   1      56.510  24.256   4.606  0.00  0.00    +0.036 A 
ATOM      6  CD1 TYR A   1      55.388  23.518   4.269  0.00  0.00    -0.001 A 
ENDROOT
BRANCH   4   7
ATOM      7  OH  TYR A   1      58.648  24.406   5.665  0.00  0.00    -0.506 OA
ATOM      8  HH  TYR A   1      58.554  25.325   5.309  0.00  0.00    +0.292 HD
ENDBRANCH   4   7
BRANCH   1   9
ATOM      9  CB  TYR A   1      54.049  21.351   4.282  0.00  0.00    +0.051 C 
BRANCH   9  10
ATOM     10  CA  TYR A   1      53.090  21.909   3.222  0.00  0.00    +0.137 C 
BRANCH  10  11
ATOM     11  N   TYR A   1      52.383  23.071   3.759  0.00  0.00    -0.239 NA
ATOM     12  H   TYR A   1      52.622  23.392   4.719  0.00  0.00    +0.142 HD
ENDBRANCH  10  11
BRANCH  10  13
ATOM     13  C   TYR A   1      52.146  20.779   2.810  0.00  0.00    +0.224 C 
ATOM     14  O   TYR A   1      51.094  20.568   3.417  0.00  0.00    -0.287 OA
ENDBRANCH  10  13
ENDBRANCH   9  10
ENDBRANCH   1   9
TORSDOF 5
REMARK  Name = ../refined-set-2016/4cr9/4cr9_pocket.pdb
REMARK  136 active torsions:
REMARK  status: ('A' for Active; 'I' for Inactive)
REMARK    1  A    between atoms: _1  and  _3
REMARK    2  A    between atoms: _3  and  _4
REMARK    3  A    between atoms: _3  and  _6
REMARK    4  A    between atoms: _9  and  _11
REMARK    5  A    between atoms: _11  and  _12
REMARK    6  A    between atoms: _11  and  _14
REMARK    7  A    between atoms: _16  and  _18
REMARK    8  A    between atoms: _18  and  _19
REMARK    9  A    between atoms: _22  and  _24
REMARK   10  A    between atoms: _24  and  _25
REMARK   11  A    between atoms: _24  and  _27
REMARK   12  A    between atoms: _27  and  _28
REMARK   13  A    between atoms: _33  and  _35
REMARK   14  A    between atoms: _35  and  _36
REMARK   15  A    between atoms: _39  and  _41
REMARK   16  A    between atoms: _41  and  _42
REMARK   17  A    between atoms: _41  and  _44
REMARK   18  A    between atoms: _44  and  _45
REMARK   19  A    between atoms: _48  and  _50
REMARK   20  A    between atoms: _50  and  _51
REMARK   21  A    between atoms: _50  and  _53
REMARK   22  A    between atoms: _56  and  _58
REMARK   23  A    between atoms: _58  and  _59
REMARK   24  A    between atoms: _58  and  _61
REMARK   25  A    between atoms: _61  and  _62
REMARK   26  A    between atoms: _67  and  _68
REMARK   27  A    between atoms: _70  and  _72
REMARK   28  A    between atoms: _72  and  _73
REMARK   29  A    between atoms: _72  and  _75
REMARK   30  A    between atoms: _75  and  _76
REMARK   31  A    between atoms: _76  and  _77
REMARK   32  A    between atoms: _77  and  _78
REMARK   33  A    between atoms: _78  and  _79
REMARK   34  A    between atoms: _83  and  _85
REMARK   35  A    between atoms: _85  and  _86
REMARK   36  A    between atoms: _85  and  _88
REMARK   37  A    between atoms: _88  and  _89
REMARK   38  A    between atoms: _92  and  _94
REMARK   39  A    between atoms: _94  and  _95
REMARK   40  A    between atoms: _94  and  _97
REMARK   41  A    between atoms: _97  and  _98
REMARK   42  A    between atoms: _103  and  _104
REMARK   43  A    between atoms: _106  and  _108
REMARK   44  A    between atoms: _108  and  _109
REMARK   45  A    between atoms: _112  and  _114
REMARK   46  A    between atoms: _114  and  _115
REMARK   47  A    between atoms: _114  and  _117
REMARK   48  A    between atoms: _117  and  _118
REMARK   49  A    between atoms: _118  and  _119
REMARK   50  A    between atoms: _119  and  _120
REMARK   51  A    between atoms: _120  and  _121
REMARK   52  A    between atoms: _125  and  _127
REMARK   53  A    between atoms: _127  and  _128
REMARK   54  A    between atoms: _127  and  _130
REMARK   55  A    between atoms: _130  and  _131
REMARK   56  A    between atoms: _134  and  _136
REMARK   57  A    between atoms: _136  and  _137
REMARK   58  A    between atoms: _140  and  _142
REMARK   59  A    between atoms: _142  and  _143
REMARK   60  A    between atoms: _142  and  _145
REMARK   61  A    between atoms: _145  and  _146
REMARK   62  A    between atoms: _146  and  _260
REMARK   63  A    between atoms: _147  and  _149
REMARK   64  A    between atoms: _149  and  _150
REMARK   65  A    between atoms: _149  and  _152
REMARK   66  A    between atoms: _152  and  _153
REMARK   67  A    between atoms: _153  and  _154
REMARK   68  A    between atoms: _154  and  _155
REMARK   69  A    between atoms: _155  and  _156
REMARK   70  A    between atoms: _160  and  _162
REMARK   71  A    between atoms: _162  and  _163
REMARK   72  A    between atoms: _165  and  _167
REMARK   73  A    between atoms: _167  and  _168
REMARK   74  A    between atoms: _167  and  _170
REMARK   75  A    between atoms: _170  and  _171
REMARK   76  A    between atoms: _174  and  _176
REMARK   77  A    between atoms: _176  and  _177
REMARK   78  A    between atoms: _176  and  _179
REMARK   79  A    between atoms: _179  and  _180
REMARK   80  A    between atoms: _182  and  _184
REMARK   81  A    between atoms: _184  and  _185
REMARK   82  A    between atoms: _187  and  _189
REMARK   83  A    between atoms: _189  and  _190
REMARK   84  A    between atoms: _192  and  _194
REMARK   85  A    between atoms: _194  and  _195
REMARK   86  A    between atoms: _194  and  _197
REMARK   87  A    between atoms: _197  and  _198
REMARK   88  A    between atoms: _201  and  _203
REMARK   89  A    between atoms: _203  and  _204
REMARK   90  A    between atoms: _203  and  _206
REMARK   91  A    between atoms: _206  and  _207
REMARK   92  A    between atoms: _210  and  _212
REMARK   93  A    between atoms: _212  and  _213
REMARK   94  A    between atoms: _212  and  _215
REMARK   95  A    between atoms: _215  and  _216
REMARK   96  A    between atoms: _218  and  _220
REMARK   97  A    between atoms: _220  and  _221
REMARK   98  A    between atoms: _220  and  _223
REMARK   99  A    between atoms: _223  and  _224
REMARK  100  A    between atoms: _234  and  _236
REMARK  101  A    between atoms: _236  and  _237
REMARK  102  A    between atoms: _239  and  _241
REMARK  103  A    between atoms: _241  and  _242
REMARK  104  A    between atoms: _241  and  _244
REMARK  105  A    between atoms: _244  and  _245
REMARK  106  A    between atoms: _245  and  _246
REMARK  107  A    between atoms: _249  and  _251
REMARK  108  A    between atoms: _251  and  _252
REMARK  109  A    between atoms: _254  and  _256
REMARK  110  A    between atoms: _256  and  _257
REMARK  111  A    between atoms: _256  and  _259
REMARK  112  A    between atoms: _259  and  _260
REMARK  113  A    between atoms: _261  and  _263
REMARK  114  A    between atoms: _263  and  _264
REMARK  115  A    between atoms: _267  and  _269
REMARK  116  A    between atoms: _269  and  _270
REMARK  117  A    between atoms: _269  and  _272
REMARK  118  A    between atoms: _272  and  _273
REMARK  119  A    between atoms: _273  and  _274
REMARK  120  A    between atoms: _279  and  _281
REMARK  121  A    between atoms: _281  and  _282
REMARK  122  A    between atoms: _281  and  _284
REMARK  123  A    between atoms: _284  and  _285
REMARK  124  A    between atoms: _285  and  _286
REMARK  125  A    between atoms: _286  and  _287
REMARK  126  A    between atoms: _297  and  _298
REMARK  127  A    between atoms: _303  and  _305
REMARK  128  A    between atoms: _305  and  _306
REMARK  129  A    between atoms: _308  and  _310
REMARK  130  A    between atoms: _310  and  _311
REMARK  131  A    between atoms: _310  and  _313
REMARK  132  A    between atoms: _316  and  _318
REMARK  133  A    between atoms: _318  and  _319
REMARK  134  A    between atoms: _318  and  _321
REMARK  135  A    between atoms: _321  and  _322
REMARK  136  A    between atoms: _327  and  _328
REMARK                            x       y       z     vdW  Elec       q    Type
REMARK                         _______ _______ _______ _____ _____    ______ ____
ROOT
ATOM      1  CA  LYS A   1      53.985  16.664   3.636  0.00  0.00    +0.145 C 
ENDROOT
BRANCH   1   2
ATOM      2  C   LYS A   1      54.913  17.307   4.655  0.00  0.00    +0.238 C 
ATOM      3  N   LEU A   2      55.320  16.538   5.657  0.00  0.00    -0.298 N 
ATOM      4  H   LEU A   2      55.157  15.512   5.609  0.00  0.00    +0.150 HD
ATOM      5  O   LYS A   1      55.278  18.472   4.514  0.00  0.00    -0.274 OA
BRANCH   3   6
ATOM      6  CA  LEU A   2      55.993  17.101   6.827  0.00  0.00    +0.137 C 
BRANCH   6   7
ATOM      7  C   LEU A   2      57.172  17.988   6.458  0.00  0.00    +0.227 C 
ATOM      8  O   LEU A   2      57.293  19.102   6.963  0.00  0.00    -0.286 OA
ENDBRANCH   6   7
BRANCH   6   9
ATOM      9  CB  LEU A   2      56.474  16.004   7.788  0.00  0.00    +0.028 C 
BRANCH   9  10
ATOM     10  CG  LEU A   2      56.015  16.115   9.245  0.00  0.00    +0.002 C 
ATOM     11  CD2 LEU A   2      56.899  15.236  10.122  0.00  0.00    +0.000 C 
ATOM     12  CD1 LEU A   2      56.002  17.542   9.778  0.00  0.00    +0.000 C 
ENDBRANCH   9  10
ENDBRANCH   6   9
ENDBRANCH   3   6
ENDBRANCH   1   2
BRANCH   1  13
ATOM     13  N   LYS A   1      53.416  17.737   2.829  0.00  0.00    -0.238 NA
ATOM     14  H   LYS A   1      53.877  18.669   2.850  0.00  0.00    +0.142 HD
ENDBRANCH   1  13
BRANCH   1  15
ATOM     15  CB  LYS A   1      54.749  15.657   2.764  0.00  0.00    +0.026 C 
BRANCH  15  16
ATOM     16  CG  LYS A   1      55.909  16.263   1.986  0.00  0.00    -0.000 C 
BRANCH  16  17
ATOM     17  CD  LYS A   1      56.470  15.336   0.919  0.00  0.00    -0.024 C 
BRANCH  17  18
ATOM     18  CE  LYS A   1      57.422  16.103   0.005  0.00  0.00    -0.086 C 
BRANCH  18  19
ATOM     19  NZ  LYS A   1      58.065  15.258  -1.040  0.00  0.00    +0.380 N 
ATOM     20  HZ1 LYS A   1      58.616  14.503  -0.583  0.00  0.00    -0.089 HD
ATOM     21  HZ2 LYS A   1      58.696  15.847  -1.620  0.00  0.00    -0.089 HD
ATOM     22  HZ3 LYS A   1      57.330  14.836  -1.643  0.00  0.00    -0.089 HD
ENDBRANCH  18  19
ENDBRANCH  17  18
ENDBRANCH  16  17
ENDBRANCH  15  16
ENDBRANCH   1  15
TORSDOF 11
REMARK  Name = ../refined-set-2016/4cr9/4cr9_pocket.pdb
REMARK  136 active torsions:
REMARK  status: ('A' for Active; 'I' for Inactive)
REMARK    1  A    between atoms: _1  and  _3
REMARK    2  A    between atoms: _3  and  _4
REMARK    3  A    between atoms: _3  and  _6
REMARK    4  A    between atoms: _9  and  _11
REMARK    5  A    between atoms: _11  and  _12
REMARK    6  A    between atoms: _11  and  _14
REMARK    7  A    between atoms: _16  and  _18
REMARK    8  A    between atoms: _18  and  _19
REMARK    9  A    between atoms: _22  and  _24
REMARK   10  A    between atoms: _24  and  _25
REMARK   11  A    between atoms: _24  and  _27
REMARK   12  A    between atoms: _27  and  _28
REMARK   13  A    between atoms: _33  and  _35
REMARK   14  A    between atoms: _35  and  _36
REMARK   15  A    between atoms: _39  and  _41
REMARK   16  A    between atoms: _41  and  _42
REMARK   17  A    between atoms: _41  and  _44
REMARK   18  A    between atoms: _44  and  _45
REMARK   19  A    between atoms: _48  and  _50
REMARK   20  A    between atoms: _50  and  _51
REMARK   21  A    between atoms: _50  and  _53
REMARK   22  A    between atoms: _56  and  _58
REMARK   23  A    between atoms: _58  and  _59
REMARK   24  A    between atoms: _58  and  _61
REMARK   25  A    between atoms: _61  and  _62
REMARK   26  A    between atoms: _67  and  _68
REMARK   27  A    between atoms: _70  and  _72
REMARK   28  A    between atoms: _72  and  _73
REMARK   29  A    between atoms: _72  and  _75
REMARK   30  A    between atoms: _75  and  _76
REMARK   31  A    between atoms: _76  and  _77
REMARK   32  A    between atoms: _77  and  _78
REMARK   33  A    between atoms: _78  and  _79
REMARK   34  A    between atoms: _83  and  _85
REMARK   35  A    between atoms: _85  and  _86
REMARK   36  A    between atoms: _85  and  _88
REMARK   37  A    between atoms: _88  and  _89
REMARK   38  A    between atoms: _92  and  _94
REMARK   39  A    between atoms: _94  and  _95
REMARK   40  A    between atoms: _94  and  _97
REMARK   41  A    between atoms: _97  and  _98
REMARK   42  A    between atoms: _103  and  _104
REMARK   43  A    between atoms: _106  and  _108
REMARK   44  A    between atoms: _108  and  _109
REMARK   45  A    between atoms: _112  and  _114
REMARK   46  A    between atoms: _114  and  _115
REMARK   47  A    between atoms: _114  and  _117
REMARK   48  A    between atoms: _117  and  _118
REMARK   49  A    between atoms: _118  and  _119
REMARK   50  A    between atoms: _119  and  _120
REMARK   51  A    between atoms: _120  and  _121
REMARK   52  A    between atoms: _125  and  _127
REMARK   53  A    between atoms: _127  and  _128
REMARK   54  A    between atoms: _127  and  _130
REMARK   55  A    between atoms: _130  and  _131
REMARK   56  A    between atoms: _134  and  _136
REMARK   57  A    between atoms: _136  and  _137
REMARK   58  A    between atoms: _140  and  _142
REMARK   59  A    between atoms: _142  and  _143
REMARK   60  A    between atoms: _142  and  _145
REMARK   61  A    between atoms: _145  and  _146
REMARK   62  A    between atoms: _146  and  _260
REMARK   63  A    between atoms: _147  and  _149
REMARK   64  A    between atoms: _149  and  _150
REMARK   65  A    between atoms: _149  and  _152
REMARK   66  A    between atoms: _152  and  _153
REMARK   67  A    between atoms: _153  and  _154
REMARK   68  A    between atoms: _154  and  _155
REMARK   69  A    between atoms: _155  and  _156
REMARK   70  A    between atoms: _160  and  _162
REMARK   71  A    between atoms: _162  and  _163
REMARK   72  A    between atoms: _165  and  _167
REMARK   73  A    between atoms: _167  and  _168
REMARK   74  A    between atoms: _167  and  _170
REMARK   75  A    between atoms: _170  and  _171
REMARK   76  A    between atoms: _174  and  _176
REMARK   77  A    between atoms: _176  and  _177
REMARK   78  A    between atoms: _176  and  _179
REMARK   79  A    between atoms: _179  and  _180
REMARK   80  A    between atoms: _182  and  _184
REMARK   81  A    between atoms: _184  and  _185
REMARK   82  A    between atoms: _187  and  _189
REMARK   83  A    between atoms: _189  and  _190
REMARK   84  A    between atoms: _192  and  _194
REMARK   85  A    between atoms: _194  and  _195
REMARK   86  A    between atoms: _194  and  _197
REMARK   87  A    between atoms: _197  and  _198
REMARK   88  A    between atoms: _201  and  _203
REMARK   89  A    between atoms: _203  and  _204
REMARK   90  A    between atoms: _203  and  _206
REMARK   91  A    between atoms: _206  and  _207
REMARK   92  A    between atoms: _210  and  _212
REMARK   93  A    between atoms: _212  and  _213
REMARK   94  A    between atoms: _212  and  _215
REMARK   95  A    between atoms: _215  and  _216
REMARK   96  A    between atoms: _218  and  _220
REMARK   97  A    between atoms: _220  and  _221
REMARK   98  A    between atoms: _220  and  _223
REMARK   99  A    between atoms: _223  and  _224
REMARK  100  A    between atoms: _234  and  _236
REMARK  101  A    between atoms: _236  and  _237
REMARK  102  A    between atoms: _239  and  _241
REMARK  103  A    between atoms: _241  and  _242
REMARK  104  A    between atoms: _241  and  _244
REMARK  105  A    between atoms: _244  and  _245
REMARK  106  A    between atoms: _245  and  _246
REMARK  107  A    between atoms: _249  and  _251
REMARK  108  A    between atoms: _251  and  _252
REMARK  109  A    between atoms: _254  and  _256
REMARK  110  A    between atoms: _256  and  _257
REMARK  111  A    between atoms: _256  and  _259
REMARK  112  A    between atoms: _259  and  _260
REMARK  113  A    between atoms: _261  and  _263
REMARK  114  A    between atoms: _263  and  _264
REMARK  115  A    between atoms: _267  and  _269
REMARK  116  A    between atoms: _269  and  _270
REMARK  117  A    between atoms: _269  and  _272
REMARK  118  A    between atoms: _272  and  _273
REMARK  119  A    between atoms: _273  and  _274
REMARK  120  A    between atoms: _279  and  _281
REMARK  121  A    between atoms: _281  and  _282
REMARK  122  A    between atoms: _281  and  _284
REMARK  123  A    between atoms: _284  and  _285
REMARK  124  A    between atoms: _285  and  _286
REMARK  125  A    between atoms: _286  and  _287
REMARK  126  A    between atoms: _297  and  _298
REMARK  127  A    between atoms: _303  and  _305
REMARK  128  A    between atoms: _305  and  _306
REMARK  129  A    between atoms: _308  and  _310
REMARK  130  A    between atoms: _310  and  _311
REMARK  131  A    between atoms: _310  and  _313
REMARK  132  A    between atoms: _316  and  _318
REMARK  133  A    between atoms: _318  and  _319
REMARK  134  A    between atoms: _318  and  _321
REMARK  135  A    between atoms: _321  and  _322
REMARK  136  A    between atoms: _327  and  _328
REMARK                            x       y       z     vdW  Elec       q    Type
REMARK                         _______ _______ _______ _____ _____    ______ ____
ROOT
ATOM      1  CG  TYR A   1      46.801  13.245  20.011  0.00  0.00    -0.020 A 
ATOM      2  CD2 TYR A   1      48.087  13.487  19.552  0.00  0.00    -0.001 A 
ATOM      3  CE2 TYR A   1      48.323  13.849  18.235  0.00  0.00    +0.036 A 
ATOM      4  CZ  TYR A   1      47.258  13.984  17.365  0.00  0.00    +0.134 A 
ATOM      5  CE1 TYR A   1      45.968  13.762  17.805  0.00  0.00    +0.036 A 
ATOM      6  CD1 TYR A   1      45.751  13.379  19.115  0.00  0.00    -0.001 A 
ENDROOT
BRANCH   4   7
ATOM      7  OH  TYR A   1      47.486  14.359  16.058  0.00  0.00    -0.506 OA
ATOM      8  HH  TYR A   1      47.020  15.213  15.875  0.00  0.00    +0.292 HD
ENDBRANCH   4   7
BRANCH   1   9
ATOM      9  CB  TYR A   1      46.550  12.831  21.441  0.00  0.00    +0.051 C 
BRANCH   9  10
ATOM     10  CA  TYR A   1      46.874  11.358  21.703  0.00  0.00    +0.137 C 
BRANCH  10  11
ATOM     11  N   TYR A   1      45.859  10.493  21.090  0.00  0.00    -0.239 NA
ATOM     12  H   TYR A   1      44.906  10.477  21.505  0.00  0.00    +0.142 HD
ENDBRANCH  10  11
BRANCH  10  13
ATOM     13  C   TYR A   1      46.982  11.090  23.204  0.00  0.00    +0.224 C 
ATOM     14  O   TYR A   1      46.621  11.932  24.033  0.00  0.00    -0.287 OA
ENDBRANCH  10  13
ENDBRANCH   9  10
ENDBRANCH   1   9
TORSDOF 5
REMARK  Name = ../refined-set-2016/4cr9/4cr9_pocket.pdb
REMARK  136 active torsions:
REMARK  status: ('A' for Active; 'I' for Inactive)
REMARK    1  A    between atoms: _1  and  _3
REMARK    2  A    between atoms: _3  and  _4
REMARK    3  A    between atoms: _3  and  _6
REMARK    4  A    between atoms: _9  and  _11
REMARK    5  A    between atoms: _11  and  _12
REMARK    6  A    between atoms: _11  and  _14
REMARK    7  A    between atoms: _16  and  _18
REMARK    8  A    between atoms: _18  and  _19
REMARK    9  A    between atoms: _22  and  _24
REMARK   10  A    between atoms: _24  and  _25
REMARK   11  A    between atoms: _24  and  _27
REMARK   12  A    between atoms: _27  and  _28
REMARK   13  A    between atoms: _33  and  _35
REMARK   14  A    between atoms: _35  and  _36
REMARK   15  A    between atoms: _39  and  _41
REMARK   16  A    between atoms: _41  and  _42
REMARK   17  A    between atoms: _41  and  _44
REMARK   18  A    between atoms: _44  and  _45
REMARK   19  A    between atoms: _48  and  _50
REMARK   20  A    between atoms: _50  and  _51
REMARK   21  A    between atoms: _50  and  _53
REMARK   22  A    between atoms: _56  and  _58
REMARK   23  A    between atoms: _58  and  _59
REMARK   24  A    between atoms: _58  and  _61
REMARK   25  A    between atoms: _61  and  _62
REMARK   26  A    between atoms: _67  and  _68
REMARK   27  A    between atoms: _70  and  _72
REMARK   28  A    between atoms: _72  and  _73
REMARK   29  A    between atoms: _72  and  _75
REMARK   30  A    between atoms: _75  and  _76
REMARK   31  A    between atoms: _76  and  _77
REMARK   32  A    between atoms: _77  and  _78
REMARK   33  A    between atoms: _78  and  _79
REMARK   34  A    between atoms: _83  and  _85
REMARK   35  A    between atoms: _85  and  _86
REMARK   36  A    between atoms: _85  and  _88
REMARK   37  A    between atoms: _88  and  _89
REMARK   38  A    between atoms: _92  and  _94
REMARK   39  A    between atoms: _94  and  _95
REMARK   40  A    between atoms: _94  and  _97
REMARK   41  A    between atoms: _97  and  _98
REMARK   42  A    between atoms: _103  and  _104
REMARK   43  A    between atoms: _106  and  _108
REMARK   44  A    between atoms: _108  and  _109
REMARK   45  A    between atoms: _112  and  _114
REMARK   46  A    between atoms: _114  and  _115
REMARK   47  A    between atoms: _114  and  _117
REMARK   48  A    between atoms: _117  and  _118
REMARK   49  A    between atoms: _118  and  _119
REMARK   50  A    between atoms: _119  and  _120
REMARK   51  A    between atoms: _120  and  _121
REMARK   52  A    between atoms: _125  and  _127
REMARK   53  A    between atoms: _127  and  _128
REMARK   54  A    between atoms: _127  and  _130
REMARK   55  A    between atoms: _130  and  _131
REMARK   56  A    between atoms: _134  and  _136
REMARK   57  A    between atoms: _136  and  _137
REMARK   58  A    between atoms: _140  and  _142
REMARK   59  A    between atoms: _142  and  _143
REMARK   60  A    between atoms: _142  and  _145
REMARK   61  A    between atoms: _145  and  _146
REMARK   62  A    between atoms: _146  and  _260
REMARK   63  A    between atoms: _147  and  _149
REMARK   64  A    between atoms: _149  and  _150
REMARK   65  A    between atoms: _149  and  _152
REMARK   66  A    between atoms: _152  and  _153
REMARK   67  A    between atoms: _153  and  _154
REMARK   68  A    between atoms: _154  and  _155
REMARK   69  A    between atoms: _155  and  _156
REMARK   70  A    between atoms: _160  and  _162
REMARK   71  A    between atoms: _162  and  _163
REMARK   72  A    between atoms: _165  and  _167
REMARK   73  A    between atoms: _167  and  _168
REMARK   74  A    between atoms: _167  and  _170
REMARK   75  A    between atoms: _170  and  _171
REMARK   76  A    between atoms: _174  and  _176
REMARK   77  A    between atoms: _176  and  _177
REMARK   78  A    between atoms: _176  and  _179
REMARK   79  A    between atoms: _179  and  _180
REMARK   80  A    between atoms: _182  and  _184
REMARK   81  A    between atoms: _184  and  _185
REMARK   82  A    between atoms: _187  and  _189
REMARK   83  A    between atoms: _189  and  _190
REMARK   84  A    between atoms: _192  and  _194
REMARK   85  A    between atoms: _194  and  _195
REMARK   86  A    between atoms: _194  and  _197
REMARK   87  A    between atoms: _197  and  _198
REMARK   88  A    between atoms: _201  and  _203
REMARK   89  A    between atoms: _203  and  _204
REMARK   90  A    between atoms: _203  and  _206
REMARK   91  A    between atoms: _206  and  _207
REMARK   92  A    between atoms: _210  and  _212
REMARK   93  A    between atoms: _212  and  _213
REMARK   94  A    between atoms: _212  and  _215
REMARK   95  A    between atoms: _215  and  _216
REMARK   96  A    between atoms: _218  and  _220
REMARK   97  A    between atoms: _220  and  _221
REMARK   98  A    between atoms: _220  and  _223
REMARK   99  A    between atoms: _223  and  _224
REMARK  100  A    between atoms: _234  and  _236
REMARK  101  A    between atoms: _236  and  _237
REMARK  102  A    between atoms: _239  and  _241
REMARK  103  A    between atoms: _241  and  _242
REMARK  104  A    between atoms: _241  and  _244
REMARK  105  A    between atoms: _244  and  _245
REMARK  106  A    between atoms: _245  and  _246
REMARK  107  A    between atoms: _249  and  _251
REMARK  108  A    between atoms: _251  and  _252
REMARK  109  A    between atoms: _254  and  _256
REMARK  110  A    between atoms: _256  and  _257
REMARK  111  A    between atoms: _256  and  _259
REMARK  112  A    between atoms: _259  and  _260
REMARK  113  A    between atoms: _261  and  _263
REMARK  114  A    between atoms: _263  and  _264
REMARK  115  A    between atoms: _267  and  _269
REMARK  116  A    between atoms: _269  and  _270
REMARK  117  A    between atoms: _269  and  _272
REMARK  118  A    between atoms: _272  and  _273
REMARK  119  A    between atoms: _273  and  _274
REMARK  120  A    between atoms: _279  and  _281
REMARK  121  A    between atoms: _281  and  _282
REMARK  122  A    between atoms: _281  and  _284
REMARK  123  A    between atoms: _284  and  _285
REMARK  124  A    between atoms: _285  and  _286
REMARK  125  A    between atoms: _286  and  _287
REMARK  126  A    between atoms: _297  and  _298
REMARK  127  A    between atoms: _303  and  _305
REMARK  128  A    between atoms: _305  and  _306
REMARK  129  A    between atoms: _308  and  _310
REMARK  130  A    between atoms: _310  and  _311
REMARK  131  A    between atoms: _310  and  _313
REMARK  132  A    between atoms: _316  and  _318
REMARK  133  A    between atoms: _318  and  _319
REMARK  134  A    between atoms: _318  and  _321
REMARK  135  A    between atoms: _321  and  _322
REMARK  136  A    between atoms: _327  and  _328
REMARK                            x       y       z     vdW  Elec       q    Type
REMARK                         _______ _______ _______ _____ _____    ______ ____
ROOT
ATOM      1  CA  ALA A   1      39.297  16.150  12.442  0.00  0.00    +0.133 C 
ATOM      2  CB  ALA A   1      38.886  17.354  11.608  0.00  0.00    +0.027 C 
ENDROOT
BRANCH   1   3
ATOM      3  N   ALA A   1      39.822  16.589  13.728  0.00  0.00    -0.239 NA
ATOM      4  H   ALA A   1      40.843  16.759  13.825  0.00  0.00    +0.142 HD
ENDBRANCH   1   3
BRANCH   1   5
ATOM      5  C   ALA A   1      40.326  15.315  11.705  0.00  0.00    +0.224 C 
ATOM      6  O   ALA A   1      41.519  15.623  11.708  0.00  0.00    -0.287 OA
ENDBRANCH   1   5
TORSDOF 2
REMARK  Name = ../refined-set-2016/4cr9/4cr9_pocket.pdb
REMARK  136 active torsions:
REMARK  status: ('A' for Active; 'I' for Inactive)
REMARK    1  A    between atoms: _1  and  _3
REMARK    2  A    between atoms: _3  and  _4
REMARK    3  A    between atoms: _3  and  _6
REMARK    4  A    between atoms: _9  and  _11
REMARK    5  A    between atoms: _11  and  _12
REMARK    6  A    between atoms: _11  and  _14
REMARK    7  A    between atoms: _16  and  _18
REMARK    8  A    between atoms: _18  and  _19
REMARK    9  A    between atoms: _22  and  _24
REMARK   10  A    between atoms: _24  and  _25
REMARK   11  A    between atoms: _24  and  _27
REMARK   12  A    between atoms: _27  and  _28
REMARK   13  A    between atoms: _33  and  _35
REMARK   14  A    between atoms: _35  and  _36
REMARK   15  A    between atoms: _39  and  _41
REMARK   16  A    between atoms: _41  and  _42
REMARK   17  A    between atoms: _41  and  _44
REMARK   18  A    between atoms: _44  and  _45
REMARK   19  A    between atoms: _48  and  _50
REMARK   20  A    between atoms: _50  and  _51
REMARK   21  A    between atoms: _50  and  _53
REMARK   22  A    between atoms: _56  and  _58
REMARK   23  A    between atoms: _58  and  _59
REMARK   24  A    between atoms: _58  and  _61
REMARK   25  A    between atoms: _61  and  _62
REMARK   26  A    between atoms: _67  and  _68
REMARK   27  A    between atoms: _70  and  _72
REMARK   28  A    between atoms: _72  and  _73
REMARK   29  A    between atoms: _72  and  _75
REMARK   30  A    between atoms: _75  and  _76
REMARK   31  A    between atoms: _76  and  _77
REMARK   32  A    between atoms: _77  and  _78
REMARK   33  A    between atoms: _78  and  _79
REMARK   34  A    between atoms: _83  and  _85
REMARK   35  A    between atoms: _85  and  _86
REMARK   36  A    between atoms: _85  and  _88
REMARK   37  A    between atoms: _88  and  _89
REMARK   38  A    between atoms: _92  and  _94
REMARK   39  A    between atoms: _94  and  _95
REMARK   40  A    between atoms: _94  and  _97
REMARK   41  A    between atoms: _97  and  _98
REMARK   42  A    between atoms: _103  and  _104
REMARK   43  A    between atoms: _106  and  _108
REMARK   44  A    between atoms: _108  and  _109
REMARK   45  A    between atoms: _112  and  _114
REMARK   46  A    between atoms: _114  and  _115
REMARK   47  A    between atoms: _114  and  _117
REMARK   48  A    between atoms: _117  and  _118
REMARK   49  A    between atoms: _118  and  _119
REMARK   50  A    between atoms: _119  and  _120
REMARK   51  A    between atoms: _120  and  _121
REMARK   52  A    between atoms: _125  and  _127
REMARK   53  A    between atoms: _127  and  _128
REMARK   54  A    between atoms: _127  and  _130
REMARK   55  A    between atoms: _130  and  _131
REMARK   56  A    between atoms: _134  and  _136
REMARK   57  A    between atoms: _136  and  _137
REMARK   58  A    between atoms: _140  and  _142
REMARK   59  A    between atoms: _142  and  _143
REMARK   60  A    between atoms: _142  and  _145
REMARK   61  A    between atoms: _145  and  _146
REMARK   62  A    between atoms: _146  and  _260
REMARK   63  A    between atoms: _147  and  _149
REMARK   64  A    between atoms: _149  and  _150
REMARK   65  A    between atoms: _149  and  _152
REMARK   66  A    between atoms: _152  and  _153
REMARK   67  A    between atoms: _153  and  _154
REMARK   68  A    between atoms: _154  and  _155
REMARK   69  A    between atoms: _155  and  _156
REMARK   70  A    between atoms: _160  and  _162
REMARK   71  A    between atoms: _162  and  _163
REMARK   72  A    between atoms: _165  and  _167
REMARK   73  A    between atoms: _167  and  _168
REMARK   74  A    between atoms: _167  and  _170
REMARK   75  A    between atoms: _170  and  _171
REMARK   76  A    between atoms: _174  and  _176
REMARK   77  A    between atoms: _176  and  _177
REMARK   78  A    between atoms: _176  and  _179
REMARK   79  A    between atoms: _179  and  _180
REMARK   80  A    between atoms: _182  and  _184
REMARK   81  A    between atoms: _184  and  _185
REMARK   82  A    between atoms: _187  and  _189
REMARK   83  A    between atoms: _189  and  _190
REMARK   84  A    between atoms: _192  and  _194
REMARK   85  A    between atoms: _194  and  _195
REMARK   86  A    between atoms: _194  and  _197
REMARK   87  A    between atoms: _197  and  _198
REMARK   88  A    between atoms: _201  and  _203
REMARK   89  A    between atoms: _203  and  _204
REMARK   90  A    between atoms: _203  and  _206
REMARK   91  A    between atoms: _206  and  _207
REMARK   92  A    between atoms: _210  and  _212
REMARK   93  A    between atoms: _212  and  _213
REMARK   94  A    between atoms: _212  and  _215
REMARK   95  A    between atoms: _215  and  _216
REMARK   96  A    between atoms: _218  and  _220
REMARK   97  A    between atoms: _220  and  _221
REMARK   98  A    between atoms: _220  and  _223
REMARK   99  A    between atoms: _223  and  _224
REMARK  100  A    between atoms: _234  and  _236
REMARK  101  A    between atoms: _236  and  _237
REMARK  102  A    between atoms: _239  and  _241
REMARK  103  A    between atoms: _241  and  _242
REMARK  104  A    between atoms: _241  and  _244
REMARK  105  A    between atoms: _244  and  _245
REMARK  106  A    between atoms: _245  and  _246
REMARK  107  A    between atoms: _249  and  _251
REMARK  108  A    between atoms: _251  and  _252
REMARK  109  A    between atoms: _254  and  _256
REMARK  110  A    between atoms: _256  and  _257
REMARK  111  A    between atoms: _256  and  _259
REMARK  112  A    between atoms: _259  and  _260
REMARK  113  A    between atoms: _261  and  _263
REMARK  114  A    between atoms: _263  and  _264
REMARK  115  A    between atoms: _267  and  _269
REMARK  116  A    between atoms: _269  and  _270
REMARK  117  A    between atoms: _269  and  _272
REMARK  118  A    between atoms: _272  and  _273
REMARK  119  A    between atoms: _273  and  _274
REMARK  120  A    between atoms: _279  and  _281
REMARK  121  A    between atoms: _281  and  _282
REMARK  122  A    between atoms: _281  and  _284
REMARK  123  A    between atoms: _284  and  _285
REMARK  124  A    between atoms: _285  and  _286
REMARK  125  A    between atoms: _286  and  _287
REMARK  126  A    between atoms: _297  and  _298
REMARK  127  A    between atoms: _303  and  _305
REMARK  128  A    between atoms: _305  and  _306
REMARK  129  A    between atoms: _308  and  _310
REMARK  130  A    between atoms: _310  and  _311
REMARK  131  A    between atoms: _310  and  _313
REMARK  132  A    between atoms: _316  and  _318
REMARK  133  A    between atoms: _318  and  _319
REMARK  134  A    between atoms: _318  and  _321
REMARK  135  A    between atoms: _321  and  _322
REMARK  136  A    between atoms: _327  and  _328
REMARK                            x       y       z     vdW  Elec       q    Type
REMARK                         _______ _______ _______ _____ _____    ______ ____
ROOT
ATOM      1  CA  CYS A   8      50.610  15.503   8.880  0.00  0.00    +0.160 C 
ENDROOT
BRANCH   1   2
ATOM      2  C   CYS A   8      49.933  14.338   8.192  0.00  0.00    +0.242 C 
ATOM      3  N   ALA A   9      48.633  14.188   8.441  0.00  0.00    -0.297 N 
ATOM      4  H   ALA A   9      48.191  14.798   9.158  0.00  0.00    +0.150 HD
ATOM      5  O   CYS A   8      50.581  13.569   7.490  0.00  0.00    -0.273 OA
BRANCH   3   6
ATOM      6  CA  ALA A   9      47.797  13.201   7.750  0.00  0.00    +0.149 C 
ATOM      7  CB  ALA A   9      47.806  13.459   6.249  0.00  0.00    +0.031 C 
BRANCH   6   8
ATOM      8  C   ALA A   9      48.184  11.753   8.041  0.00  0.00    +0.241 C 
ATOM      9  N   GLN A  10      48.824  11.518   9.177  0.00  0.00    -0.298 N 
ATOM     10  H   GLN A  10      49.057  12.307   9.814  0.00  0.00    +0.150 HD
ATOM     11  O   ALA A   9      47.894  10.850   7.251  0.00  0.00    -0.273 OA
BRANCH   9  12
ATOM     12  CA  GLN A  10      49.201  10.161   9.536  0.00  0.00    +0.137 C 
BRANCH  12  13
ATOM     13  C   GLN A  10      47.975   9.372   9.979  0.00  0.00    +0.227 C 
ATOM     14  O   GLN A  10      47.017   9.941  10.510  0.00  0.00    -0.286 OA
ENDBRANCH  12  13
BRANCH  12  15
ATOM     15  CB  GLN A  10      50.229  10.171  10.667  0.00  0.00    +0.037 C 
BRANCH  15  16
ATOM     16  CG  GLN A  10      51.551  10.822  10.309  0.00  0.00    +0.087 C 
BRANCH  16  17
ATOM     17  CD  GLN A  10      52.672  10.375  11.229  0.00  0.00    +0.219 C 
ATOM     18  NE2 GLN A  10      52.708  10.929  12.438  0.00  0.00    -0.329 N 
ATOM     19 HE21 GLN A  10      53.440  10.644  13.119  0.00  0.00    +0.145 HD
ATOM     20 HE22 GLN A  10      52.004  11.647  12.702  0.00  0.00    +0.145 HD
ATOM     21  OE1 GLN A  10      53.479   9.523  10.866  0.00  0.00    -0.275 OA
ENDBRANCH  16  17
ENDBRANCH  15  16
ENDBRANCH  12  15
ENDBRANCH   9  12
ENDBRANCH   6   8
ENDBRANCH   3   6
ENDBRANCH   1   2
BRANCH   1  22
ATOM     22  N   CYS A   8      51.695  15.010   9.724  0.00  0.00    -0.296 N 
ATOM     23  C   GLY A   7      51.792  15.344  11.004  0.00  0.00    +0.243 C 
ATOM     24  O   GLY A   7      50.991  16.108  11.559  0.00  0.00    -0.273 OA
ATOM     25  H   CYS A   8      52.411  14.380   9.310  0.00  0.00    +0.150 HD
BRANCH  23  26
ATOM     26  CA  GLY A   7      52.960  14.746  11.769  0.00  0.00    +0.176 C 
BRANCH  26  27
ATOM     27  N   GLY A   7      52.789  14.944  13.204  0.00  0.00    -0.295 N 
ATOM     28  C   GLU A   6      51.867  14.283  13.895  0.00  0.00    +0.241 C 
ATOM     29  O   GLU A   6      51.208  13.359  13.423  0.00  0.00    -0.273 OA
ATOM     30  H   GLY A   7      53.405  15.620  13.699  0.00  0.00    +0.150 HD
BRANCH  28  31
ATOM     31  CA  GLU A   6      51.653  14.748  15.324  0.00  0.00    +0.149 C 
BRANCH  31  32
ATOM     32  N   GLU A   6      50.391  15.494  15.387  0.00  0.00    -0.297 N 
ATOM     33  H   GLU A   6      49.507  15.005  15.633  0.00  0.00    +0.150 HD
ATOM     34  C   GLY A   5      50.382  16.799  15.128  0.00  0.00    +0.243 C 
ATOM     35  O   GLY A   5      51.415  17.460  14.992  0.00  0.00    -0.273 OA
BRANCH  34  36
ATOM     36  CA  GLY A   5      49.032  17.486  15.037  0.00  0.00    +0.176 C 
BRANCH  36  37
ATOM     37  N   GLY A   5      49.233  18.928  15.147  0.00  0.00    -0.295 N 
ATOM     38  C   TRP A   4      48.226  19.780  15.302  0.00  0.00    +0.241 C 
ATOM     39  O   TRP A   4      47.043  19.456  15.202  0.00  0.00    -0.273 OA
ATOM     40  H   GLY A   5      50.202  19.302  15.102  0.00  0.00    +0.150 HD
BRANCH  38  41
ATOM     41  CA  TRP A   4      48.632  21.203  15.646  0.00  0.00    +0.153 C 
BRANCH  41  42
ATOM     42  N   TRP A   4      47.519  22.162  15.575  0.00  0.00    -0.297 N 
ATOM     43  H   TRP A   4      46.540  21.810  15.562  0.00  0.00    +0.150 HD
ATOM     44  C   SER A   3      47.743  23.469  15.527  0.00  0.00    +0.243 C 
ATOM     45  O   SER A   3      48.876  23.951  15.507  0.00  0.00    -0.273 OA
BRANCH  44  46
ATOM     46  CA  SER A   3      46.520  24.392  15.514  0.00  0.00    +0.178 C 
BRANCH  46  47
ATOM     47  N   SER A   3      45.687  24.188  14.334  0.00  0.00    -0.295 N 
ATOM     48  H   SER A   3      45.362  23.229  14.096  0.00  0.00    +0.150 HD
ATOM     49  C   THR A   2      45.336  25.215  13.555  0.00  0.00    +0.243 C 
ATOM     50  O   THR A   2      45.864  26.318  13.635  0.00  0.00    -0.273 OA
BRANCH  49  51
ATOM     51  CA  THR A   2      44.227  24.949  12.534  0.00  0.00    +0.176 C 
BRANCH  51  52
ATOM     52  N   THR A   2      43.119  25.902  12.681  0.00  0.00    -0.295 N 
ATOM     53  C   ILE A   1      42.479  26.080  13.831  0.00  0.00    +0.238 C 
ATOM     54  O   ILE A   1      42.737  25.431  14.854  0.00  0.00    -0.274 OA
ATOM     55  H   THR A   2      42.825  26.458  11.853  0.00  0.00    +0.150 HD
BRANCH  53  56
ATOM     56  CA  ILE A   1      41.389  27.140  13.826  0.00  0.00    +0.145 C 
BRANCH  56  57
ATOM     57  CB  ILE A   1      41.823  28.288  14.760  0.00  0.00    +0.025 C 
ATOM     58  CG2 ILE A   1      43.115  28.920  14.260  0.00  0.00    +0.002 C 
BRANCH  57  59
ATOM     59  CG1 ILE A   1      40.728  29.353  14.882  0.00  0.00    +0.002 C 
ATOM     60  CD1 ILE A   1      40.895  30.249  16.089  0.00  0.00    +0.000 C 
ENDBRANCH  57  59
ENDBRANCH  56  57
BRANCH  56  61
ATOM     61  N   ILE A   1      40.161  26.497  14.269  0.00  0.00    -0.238 NA
ATOM     62  H   ILE A   1      40.141  26.085  15.224  0.00  0.00    +0.142 HD
ENDBRANCH  56  61
ENDBRANCH  53  56
ENDBRANCH  51  52
BRANCH  51  63
ATOM     63  CB  THR A   2      44.777  25.023  11.102  0.00  0.00    +0.137 C 
ATOM     64  CG2 THR A   2      45.949  24.073  10.894  0.00  0.00    +0.034 C 
BRANCH  63  65
ATOM     65  OG1 THR A   2      43.728  24.691  10.188  0.00  0.00    -0.382 OA
ATOM     66  HG1 THR A   2      44.073  24.736   9.261  0.00  0.00    +0.210 HD
ENDBRANCH  63  65
ENDBRANCH  51  63
ENDBRANCH  49  51
ENDBRANCH  46  47
BRANCH  46  67
ATOM     67  CB  SER A   3      45.687  24.215  16.787  0.00  0.00    +0.166 C 
BRANCH  67  68
ATOM     68  OG  SER A   3      46.457  24.509  17.948  0.00  0.00    -0.380 OA
ATOM     69  H   SER A   3      46.774  25.446  17.904  0.00  0.00    +0.211 HD
ENDBRANCH  67  68
ENDBRANCH  46  67
ENDBRANCH  44  46
ENDBRANCH  41  42
BRANCH  41  70
ATOM     70  CB  TRP A   4      49.286  21.235  17.043  0.00  0.00    +0.057 C 
BRANCH  70  71
ATOM     71  CG  TRP A   4      48.416  20.747  18.165  0.00  0.00    -0.002 A 
ATOM     72  CD1 TRP A   4      47.469  21.467  18.838  0.00  0.00    +0.068 A 
ATOM     73  NE1 TRP A   4      46.883  20.691  19.810  0.00  0.00    -0.352 N 
ATOM     74  HE1 TRP A   4      46.128  20.999  20.456  0.00  0.00    +0.166 HD
ATOM     75  CE2 TRP A   4      47.456  19.444  19.790  0.00  0.00    +0.056 A 
ATOM     76  CZ2 TRP A   4      47.210  18.324  20.594  0.00  0.00    +0.017 A 
ATOM     77  CH2 TRP A   4      47.943  17.191  20.344  0.00  0.00    +0.001 A 
ATOM     78  CZ3 TRP A   4      48.922  17.158  19.345  0.00  0.00    +0.000 A 
ATOM     79  CE3 TRP A   4      49.171  18.273  18.547  0.00  0.00    +0.001 A 
ATOM     80  CD2 TRP A   4      48.431  19.442  18.772  0.00  0.00    +0.013 A 
ENDBRANCH  70  71
ENDBRANCH  41  70
ENDBRANCH  38  41
ENDBRANCH  36  37
ENDBRANCH  34  36
ENDBRANCH  31  32
BRANCH  31  81
ATOM     81  CB  GLU A   6      51.702  13.569  16.303  0.00  0.00    +0.041 C 
BRANCH  81  82
ATOM     82  CG  GLU A   6      53.062  12.858  16.307  0.00  0.00    +0.116 C 
BRANCH  82  83
ATOM     83  CD  GLU A   6      54.237  13.799  16.559  0.00  0.00    +0.365 C 
ATOM     84  OE2 GLU A   6      54.221  14.508  17.580  0.00  0.00    -0.246 OA
ATOM     85  OE1 GLU A   6      55.181  13.852  15.736  0.00  0.00    -0.246 OA
ENDBRANCH  82  83
ENDBRANCH  81  82
ENDBRANCH  31  81
ENDBRANCH  28  31
ENDBRANCH  26  27
ENDBRANCH  23  26
ENDBRANCH   1  22
BRANCH   1  86
ATOM     86  CB  CYS A   8      51.149  16.488   7.844  0.00  0.00    +0.098 C 
BRANCH  86  87
ATOM     87  SG  CYS A   8      52.075  17.855   8.575  0.00  0.00    -0.080 S 
BRANCH  87  88
ATOM     88  SG  TRP A   4      52.513  19.046   6.981  0.00  0.00    -0.080 S 
BRANCH  88  89
ATOM     89  CB  TRP A   4      50.951  19.921   6.636  0.00  0.00    +0.098 C 
BRANCH  89  90
ATOM     90  CA  TRP A   4      50.328  20.623   7.847  0.00  0.00    +0.160 C 
BRANCH  90  93
ATOM     91  C   SER A   3      47.993  19.962   7.927  0.00  0.00    +0.241 C 
ATOM     92  O   SER A   3      48.290  18.861   8.362  0.00  0.00    -0.273 OA
ATOM     93  N   TRP A   4      48.903  20.872   7.617  0.00  0.00    -0.296 N 
ATOM     94  H   TRP A   4      48.602  21.778   7.204  0.00  0.00    +0.150 HD
BRANCH  91  95
ATOM     95  CA  SER A   3      46.531  20.357   7.741  0.00  0.00    +0.149 C 
ATOM     96  CB  SER A   3      46.100  21.279   8.872  0.00  0.00    +0.031 C 
BRANCH  95  98
ATOM     97  C   THR A   2      45.712  18.294   6.726  0.00  0.00    +0.241 C 
ATOM     98  N   SER A   3      45.710  19.155   7.736  0.00  0.00    -0.297 N 
ATOM     99  H   SER A   3      45.098  18.964   8.555  0.00  0.00    +0.150 HD
ATOM    100  O   THR A   2      46.197  18.548   5.622  0.00  0.00    -0.273 OA
BRANCH  97 101
ATOM    101  CA  THR A   2      45.090  16.929   7.012  0.00  0.00    +0.160 C 
BRANCH 101 104
ATOM    102  C   ILE A   1      44.178  15.064   5.713  0.00  0.00    +0.238 C 
ATOM    103  O   ILE A   1      43.662  14.547   6.702  0.00  0.00    -0.274 OA
ATOM    104  N   THR A   2      44.805  16.238   5.749  0.00  0.00    -0.297 N 
ATOM    105  H   THR A   2      45.102  16.679   4.855  0.00  0.00    +0.150 HD
BRANCH 102 106
ATOM    106  CA  ILE A   1      44.117  14.362   4.367  0.00  0.00    +0.145 C 
BRANCH 106 107
ATOM    107  N   ILE A   1      44.562  12.967   4.516  0.00  0.00    -0.238 NA
ATOM    108  H   ILE A   1      44.220  12.419   5.331  0.00  0.00    +0.142 HD
ENDBRANCH 106 107
BRANCH 106 109
ATOM    109  CB  ILE A   1      42.687  14.419   3.815  0.00  0.00    +0.026 C 
BRANCH 109 110
ATOM    110  CG  ILE A   1      42.556  13.890   2.392  0.00  0.00    -0.000 C 
BRANCH 110 111
ATOM    111  CD  ILE A   1      41.148  14.080   1.857  0.00  0.00    -0.024 C 
BRANCH 111 112
ATOM    112  CE  ILE A   1      41.026  13.585   0.429  0.00  0.00    -0.086 C 
BRANCH 112 113
ATOM    113  NZ  ILE A   1      39.599  13.573   0.008  0.00  0.00    +0.380 N 
ATOM    114  HZ1 ILE A   1      39.059  12.942   0.634  0.00  0.00    -0.089 HD
ATOM    115  HZ2 ILE A   1      39.213  14.537   0.068  0.00  0.00    -0.089 HD
ATOM    116  HZ3 ILE A   1      39.531  13.232  -0.972  0.00  0.00    -0.089 HD
ENDBRANCH 112 113
ENDBRANCH 111 112
ENDBRANCH 110 111
ENDBRANCH 109 110
ENDBRANCH 106 109
ENDBRANCH 102 106
ENDBRANCH 101 104
BRANCH 101 117
ATOM    117  CB  THR A   2      46.070  16.069   7.847  0.00  0.00    +0.143 C 
BRANCH 117 118
ATOM    118  CG  THR A   2      46.228  16.530   9.304  0.00  0.00    +0.367 C 
ATOM    119  OD2 THR A   2      47.173  16.026   9.975  0.00  0.00    -0.246 OA
ATOM    120  OD1 THR A   2      45.440  17.363   9.802  0.00  0.00    -0.246 OA
ENDBRANCH 117 118
ENDBRANCH 101 117
ENDBRANCH  97 101
ENDBRANCH  95  98
ENDBRANCH  91  95
ENDBRANCH  90  93
BRANCH  90 121
ATOM    121  C   TRP A   4      51.031  21.934   8.143  0.00  0.00    +0.242 C 
ATOM    122  O   TRP A   4      50.389  22.976   8.266  0.00  0.00    -0.273 OA
ATOM    123  N   GLY A   5      52.349  21.921   8.266  0.00  0.00    -0.297 N 
ATOM    124  H   GLY A   5      52.865  21.022   8.181  0.00  0.00    +0.150 HD
BRANCH 123 125
ATOM    125  CA  GLY A   5      53.090  23.165   8.522  0.00  0.00    +0.149 C 
BRANCH 125 126
ATOM    126  C   GLY A   5      52.698  24.280   7.532  0.00  0.00    +0.241 C 
ATOM    127  N   GLU A   6      52.416  25.498   8.021  0.00  0.00    -0.295 N 
ATOM    128  H   GLU A   6      52.465  25.652   9.048  0.00  0.00    +0.150 HD
ATOM    129  O   GLY A   5      52.618  24.012   6.338  0.00  0.00    -0.273 OA
BRANCH 127 130
ATOM    130  CA  GLU A   6      52.040  26.622   7.149  0.00  0.00    +0.176 C 
BRANCH 130 131
ATOM    131  C   GLU A   6      50.540  26.819   7.015  0.00  0.00    +0.243 C 
ATOM    132  N   GLY A   7      49.757  25.823   7.417  0.00  0.00    -0.296 N 
ATOM    133  H   GLY A   7      50.191  24.929   7.725  0.00  0.00    +0.150 HD
ATOM    134  O   GLU A   6      50.094  27.862   6.549  0.00  0.00    -0.273 OA
BRANCH 132 135
ATOM    135  CA  GLY A   7      48.303  25.953   7.436  0.00  0.00    +0.160 C 
BRANCH 135 136
ATOM    136  C   GLY A   7      47.799  26.548   8.755  0.00  0.00    +0.241 C 
ATOM    137  N   CYS A   8      48.670  26.587   9.762  0.00  0.00    -0.295 N 
ATOM    138  H   CYS A   8      49.625  26.208   9.599  0.00  0.00    +0.150 HD
ATOM    139  O   GLY A   7      46.646  26.955   8.841  0.00  0.00    -0.273 OA
BRANCH 137 140
ATOM    140  CA  CYS A   8      48.361  27.134  11.090  0.00  0.00    +0.178 C 
BRANCH 140 141
ATOM    141  C   CYS A   8      47.620  28.452  11.018  0.00  0.00    +0.243 C 
ATOM    142  N   ALA A   9      46.587  28.591  11.844  0.00  0.00    -0.295 N 
ATOM    143  H   ALA A   9      46.307  27.787  12.441  0.00  0.00    +0.150 HD
ATOM    144  O   CYS A   8      47.974  29.325  10.235  0.00  0.00    -0.273 OA
BRANCH 142 145
ATOM    145  CA  ALA A   9      45.834  29.837  11.938  0.00  0.00    +0.176 C 
BRANCH 145 146
ATOM    146  C   ALA A   9      44.675  29.927  10.964  0.00  0.00    +0.243 C 
ATOM    147  O   ALA A   9      43.763  30.718  11.167  0.00  0.00    -0.273 OA
ATOM    148  N   GLN A  10      44.699  29.109   9.916  0.00  0.00    -0.296 N 
ATOM    149  H   GLN A  10      45.519  28.484   9.778  0.00  0.00    +0.150 HD
BRANCH 148 150
ATOM    150  CA  GLN A  10      43.600  29.068   8.954  0.00  0.00    +0.163 C 
BRANCH 150 151
ATOM    151  C   GLN A  10      42.338  28.436   9.513  0.00  0.00    +0.229 C 
ATOM    152  O   GLN A  10      42.336  27.894  10.624  0.00  0.00    -0.286 OA
ENDBRANCH 150 151
ENDBRANCH 148 150
ENDBRANCH 145 146
ENDBRANCH 142 145
ENDBRANCH 140 141
BRANCH 140 153
ATOM    153  CB  CYS A   8      49.646  27.372  11.878  0.00  0.00    +0.166 C 
BRANCH 153 154
ATOM    154  O   CYS A   8      50.281  26.148  12.229  0.00  0.00    -0.380 OA
ATOM    155  H   CYS A   8      51.108  26.341  12.737  0.00  0.00    +0.211 HD
ENDBRANCH 153 154
ENDBRANCH 140 153
ENDBRANCH 137 140
ENDBRANCH 135 136
BRANCH 135 156
ATOM    156  CB  GLY A   7      47.654  24.599   7.209  0.00  0.00    +0.143 C 
BRANCH 156 157
ATOM    157  CG  GLY A   7      47.912  24.062   5.820  0.00  0.00    +0.367 C 
ATOM    158  OD2 GLY A   7      48.197  22.852   5.704  0.00  0.00    -0.246 OA
ATOM    159  OD1 GLY A   7      47.843  24.856   4.844  0.00  0.00    -0.246 OA
ENDBRANCH 156 157
ENDBRANCH 135 156
ENDBRANCH 132 135
ENDBRANCH 130 131
ENDBRANCH 127 130
ENDBRANCH 125 126
BRANCH 125 160
ATOM    160  CB  GLY A   5      54.590  22.893   8.452  0.00  0.00    +0.029 C 
BRANCH 160 161
ATOM    161  CG  GLY A   5      55.449  24.120   8.658  0.00  0.00    +0.000 C 
BRANCH 161 162
ATOM    162  CD  GLY A   5      56.846  23.758   9.129  0.00  0.00    -0.024 C 
BRANCH 162 163
ATOM    163  CE  GLY A   5      57.701  25.005   9.224  0.00  0.00    -0.086 C 
BRANCH 163 164
ATOM    164  NZ  GLY A   5      58.924  24.783  10.039  0.00  0.00    +0.380 N 
ATOM    165  HZ1 GLY A   5      58.651  24.502  11.002  0.00  0.00    -0.089 HD
ATOM    166  HZ2 GLY A   5      59.478  25.662  10.077  0.00  0.00    -0.089 HD
ATOM    167  HZ3 GLY A   5      59.496  24.030   9.606  0.00  0.00    -0.089 HD
ENDBRANCH 163 164
ENDBRANCH 162 163
ENDBRANCH 161 162
ENDBRANCH 160 161
ENDBRANCH 125 160
ENDBRANCH 123 125
ENDBRANCH  90 121
ENDBRANCH  89  90
ENDBRANCH  88  89
ENDBRANCH  87  88
ENDBRANCH  86  87
ENDBRANCH   1  86
TORSDOF 75
REMARK  Name = ../refined-set-2016/4cr9/4cr9_pocket.pdb
REMARK  136 active torsions:
REMARK  status: ('A' for Active; 'I' for Inactive)
REMARK    1  A    between atoms: _1  and  _3
REMARK    2  A    between atoms: _3  and  _4
REMARK    3  A    between atoms: _3  and  _6
REMARK    4  A    between atoms: _9  and  _11
REMARK    5  A    between atoms: _11  and  _12
REMARK    6  A    between atoms: _11  and  _14
REMARK    7  A    between atoms: _16  and  _18
REMARK    8  A    between atoms: _18  and  _19
REMARK    9  A    between atoms: _22  and  _24
REMARK   10  A    between atoms: _24  and  _25
REMARK   11  A    between atoms: _24  and  _27
REMARK   12  A    between atoms: _27  and  _28
REMARK   13  A    between atoms: _33  and  _35
REMARK   14  A    between atoms: _35  and  _36
REMARK   15  A    between atoms: _39  and  _41
REMARK   16  A    between atoms: _41  and  _42
REMARK   17  A    between atoms: _41  and  _44
REMARK   18  A    between atoms: _44  and  _45
REMARK   19  A    between atoms: _48  and  _50
REMARK   20  A    between atoms: _50  and  _51
REMARK   21  A    between atoms: _50  and  _53
REMARK   22  A    between atoms: _56  and  _58
REMARK   23  A    between atoms: _58  and  _59
REMARK   24  A    between atoms: _58  and  _61
REMARK   25  A    between atoms: _61  and  _62
REMARK   26  A    between atoms: _67  and  _68
REMARK   27  A    between atoms: _70  and  _72
REMARK   28  A    between atoms: _72  and  _73
REMARK   29  A    between atoms: _72  and  _75
REMARK   30  A    between atoms: _75  and  _76
REMARK   31  A    between atoms: _76  and  _77
REMARK   32  A    between atoms: _77  and  _78
REMARK   33  A    between atoms: _78  and  _79
REMARK   34  A    between atoms: _83  and  _85
REMARK   35  A    between atoms: _85  and  _86
REMARK   36  A    between atoms: _85  and  _88
REMARK   37  A    between atoms: _88  and  _89
REMARK   38  A    between atoms: _92  and  _94
REMARK   39  A    between atoms: _94  and  _95
REMARK   40  A    between atoms: _94  and  _97
REMARK   41  A    between atoms: _97  and  _98
REMARK   42  A    between atoms: _103  and  _104
REMARK   43  A    between atoms: _106  and  _108
REMARK   44  A    between atoms: _108  and  _109
REMARK   45  A    between atoms: _112  and  _114
REMARK   46  A    between atoms: _114  and  _115
REMARK   47  A    between atoms: _114  and  _117
REMARK   48  A    between atoms: _117  and  _118
REMARK   49  A    between atoms: _118  and  _119
REMARK   50  A    between atoms: _119  and  _120
REMARK   51  A    between atoms: _120  and  _121
REMARK   52  A    between atoms: _125  and  _127
REMARK   53  A    between atoms: _127  and  _128
REMARK   54  A    between atoms: _127  and  _130
REMARK   55  A    between atoms: _130  and  _131
REMARK   56  A    between atoms: _134  and  _136
REMARK   57  A    between atoms: _136  and  _137
REMARK   58  A    between atoms: _140  and  _142
REMARK   59  A    between atoms: _142  and  _143
REMARK   60  A    between atoms: _142  and  _145
REMARK   61  A    between atoms: _145  and  _146
REMARK   62  A    between atoms: _146  and  _260
REMARK   63  A    between atoms: _147  and  _149
REMARK   64  A    between atoms: _149  and  _150
REMARK   65  A    between atoms: _149  and  _152
REMARK   66  A    between atoms: _152  and  _153
REMARK   67  A    between atoms: _153  and  _154
REMARK   68  A    between atoms: _154  and  _155
REMARK   69  A    between atoms: _155  and  _156
REMARK   70  A    between atoms: _160  and  _162
REMARK   71  A    between atoms: _162  and  _163
REMARK   72  A    between atoms: _165  and  _167
REMARK   73  A    between atoms: _167  and  _168
REMARK   74  A    between atoms: _167  and  _170
REMARK   75  A    between atoms: _170  and  _171
REMARK   76  A    between atoms: _174  and  _176
REMARK   77  A    between atoms: _176  and  _177
REMARK   78  A    between atoms: _176  and  _179
REMARK   79  A    between atoms: _179  and  _180
REMARK   80  A    between atoms: _182  and  _184
REMARK   81  A    between atoms: _184  and  _185
REMARK   82  A    between atoms: _187  and  _189
REMARK   83  A    between atoms: _189  and  _190
REMARK   84  A    between atoms: _192  and  _194
REMARK   85  A    between atoms: _194  and  _195
REMARK   86  A    between atoms: _194  and  _197
REMARK   87  A    between atoms: _197  and  _198
REMARK   88  A    between atoms: _201  and  _203
REMARK   89  A    between atoms: _203  and  _204
REMARK   90  A    between atoms: _203  and  _206
REMARK   91  A    between atoms: _206  and  _207
REMARK   92  A    between atoms: _210  and  _212
REMARK   93  A    between atoms: _212  and  _213
REMARK   94  A    between atoms: _212  and  _215
REMARK   95  A    between atoms: _215  and  _216
REMARK   96  A    between atoms: _218  and  _220
REMARK   97  A    between atoms: _220  and  _221
REMARK   98  A    between atoms: _220  and  _223
REMARK   99  A    between atoms: _223  and  _224
REMARK  100  A    between atoms: _234  and  _236
REMARK  101  A    between atoms: _236  and  _237
REMARK  102  A    between atoms: _239  and  _241
REMARK  103  A    between atoms: _241  and  _242
REMARK  104  A    between atoms: _241  and  _244
REMARK  105  A    between atoms: _244  and  _245
REMARK  106  A    between atoms: _245  and  _246
REMARK  107  A    between atoms: _249  and  _251
REMARK  108  A    between atoms: _251  and  _252
REMARK  109  A    between atoms: _254  and  _256
REMARK  110  A    between atoms: _256  and  _257
REMARK  111  A    between atoms: _256  and  _259
REMARK  112  A    between atoms: _259  and  _260
REMARK  113  A    between atoms: _261  and  _263
REMARK  114  A    between atoms: _263  and  _264
REMARK  115  A    between atoms: _267  and  _269
REMARK  116  A    between atoms: _269  and  _270
REMARK  117  A    between atoms: _269  and  _272
REMARK  118  A    between atoms: _272  and  _273
REMARK  119  A    between atoms: _273  and  _274
REMARK  120  A    between atoms: _279  and  _281
REMARK  121  A    between atoms: _281  and  _282
REMARK  122  A    between atoms: _281  and  _284
REMARK  123  A    between atoms: _284  and  _285
REMARK  124  A    between atoms: _285  and  _286
REMARK  125  A    between atoms: _286  and  _287
REMARK  126  A    between atoms: _297  and  _298
REMARK  127  A    between atoms: _303  and  _305
REMARK  128  A    between atoms: _305  and  _306
REMARK  129  A    between atoms: _308  and  _310
REMARK  130  A    between atoms: _310  and  _311
REMARK  131  A    between atoms: _310  and  _313
REMARK  132  A    between atoms: _316  and  _318
REMARK  133  A    between atoms: _318  and  _319
REMARK  134  A    between atoms: _318  and  _321
REMARK  135  A    between atoms: _321  and  _322
REMARK  136  A    between atoms: _327  and  _328
REMARK                            x       y       z     vdW  Elec       q    Type
REMARK                         _______ _______ _______ _____ _____    ______ ____
ROOT
ATOM      1  C   PRO A   2      44.350  14.802  13.948  0.00  0.00    +0.241 C 
ATOM      2  O   PRO A   2      45.136  14.985  14.881  0.00  0.00    -0.273 OA
ATOM      3  N   GLY A   3      44.074  15.727  13.035  0.00  0.00    -0.295 N 
ATOM      4  H   GLY A   3      43.552  15.459  12.176  0.00  0.00    +0.150 HD
ENDROOT
BRANCH   1  10
ATOM      5  C   ARG A   1      45.696  12.146  13.692  0.00  0.00    +0.241 C 
ATOM      6  N   PRO A   2      44.485  12.345  14.236  0.00  0.00    -0.272 N 
ATOM      7  CD  PRO A   2      43.834  11.580  15.313  0.00  0.00    +0.094 C 
ATOM      8  CG  PRO A   2      42.396  12.007  15.227  0.00  0.00    +0.024 C 
ATOM      9  CB  PRO A   2      42.433  13.399  14.704  0.00  0.00    +0.031 C 
ATOM     10  CA  PRO A   2      43.654  13.461  13.781  0.00  0.00    +0.152 C 
ATOM     11  O   ARG A   1      46.127  12.827  12.757  0.00  0.00    -0.273 OA
BRANCH   5  12
ATOM     12  CA  ARG A   1      46.543  11.008  14.270  0.00  0.00    +0.145 C 
BRANCH  12  13
ATOM     13  N   ARG A   1      46.081   9.746  13.706  0.00  0.00    -0.238 NA
ATOM     14  H   ARG A   1      45.859   9.703  12.691  0.00  0.00    +0.142 HD
ENDBRANCH  12  13
BRANCH  12  15
ATOM     15  CB  ARG A   1      48.023  11.249  13.954  0.00  0.00    +0.030 C 
BRANCH  15  16
ATOM     16  CG  ARG A   1      48.994  10.300  14.641  0.00  0.00    +0.045 C 
BRANCH  16  17
ATOM     17  CD  ARG A   1      49.016  10.453  16.146  0.00  0.00    +0.174 C 
BRANCH  17  18
ATOM     18  NE  ARG A   1      50.213   9.830  16.716  0.00  0.00    -0.265 N 
ATOM     19  CZ  ARG A   1      50.674  10.032  17.950  0.00  0.00    +0.342 C 
ATOM     20  NH2 ARG A   1      50.043  10.835  18.797  0.00  0.00    -0.292 N 
ATOM     21 HH21 ARG A   1      50.420  10.979  19.756  0.00  0.00    +0.255 HD
ATOM     22 HH22 ARG A   1      49.172  11.320  18.502  0.00  0.00    +0.255 HD
ATOM     23  NH1 ARG A   1      51.790   9.425  18.343  0.00  0.00    -0.292 N 
ATOM     24 HH11 ARG A   1      52.155   9.579  19.305  0.00  0.00    +0.255 HD
ATOM     25 HH12 ARG A   1      52.298   8.796  17.689  0.00  0.00    +0.255 HD
ATOM     26  HE  ARG A   1      50.747   9.177  16.108  0.00  0.00    +0.259 HD
ENDBRANCH  17  18
ENDBRANCH  16  17
ENDBRANCH  15  16
ENDBRANCH  12  15
ENDBRANCH   5  12
ENDBRANCH   1  10
BRANCH   3  27
ATOM     27  CA  GLY A   3      44.490  17.107  13.219  0.00  0.00    +0.176 C 
BRANCH  27  28
ATOM     28  C   GLY A   3      43.735  17.706  14.391  0.00  0.00    +0.243 C 
ATOM     29  N   VAL A   4      44.396  18.585  15.132  0.00  0.00    -0.297 N 
ATOM     30  H   VAL A   4      45.381  18.810  14.887  0.00  0.00    +0.150 HD
ATOM     31  O   GLY A   3      42.567  17.383  14.615  0.00  0.00    -0.273 OA
BRANCH  29  32
ATOM     32  CA  VAL A   4      43.787  19.244  16.277  0.00  0.00    +0.149 C 
BRANCH  32  33
ATOM     33  C   VAL A   4      43.590  20.726  15.972  0.00  0.00    +0.241 C 
ATOM     34  N   TYR A   5      42.410  21.220  16.328  0.00  0.00    -0.298 N 
ATOM     35  H   TYR A   5      41.756  20.610  16.859  0.00  0.00    +0.150 HD
ATOM     36  O   VAL A   4      44.474  21.399  15.426  0.00  0.00    -0.273 OA
BRANCH  34  37
ATOM     37  CA  TYR A   5      41.992  22.570  16.011  0.00  0.00    +0.141 C 
BRANCH  37  38
ATOM     38  C   TYR A   5      41.458  23.260  17.259  0.00  0.00    +0.227 C 
ATOM     39  O   TYR A   5      40.963  22.612  18.168  0.00  0.00    -0.286 OA
ENDBRANCH  37  38
BRANCH  37  40
ATOM     40  CB  TYR A   5      40.893  22.530  14.950  0.00  0.00    +0.054 C 
BRANCH  40  41
ATOM     41  CG  TYR A   5      41.321  21.892  13.648  0.00  0.00    -0.020 A 
ATOM     42  CD2 TYR A   5      41.396  20.510  13.518  0.00  0.00    -0.001 A 
ATOM     43  CE2 TYR A   5      41.795  19.919  12.332  0.00  0.00    +0.036 A 
ATOM     44  CZ  TYR A   5      42.098  20.721  11.240  0.00  0.00    +0.134 A 
ATOM     45  CE1 TYR A   5      42.024  22.088  11.350  0.00  0.00    +0.036 A 
ATOM     46  CD1 TYR A   5      41.635  22.669  12.544  0.00  0.00    -0.001 A 
BRANCH  44  47
ATOM     47  OH  TYR A   5      42.495  20.153  10.047  0.00  0.00    -0.506 OA
ATOM     48  HH  TYR A   5      42.495  19.167  10.136  0.00  0.00    +0.292 HD
ENDBRANCH  44  47
ENDBRANCH  40  41
ENDBRANCH  37  40
ENDBRANCH  34  37
ENDBRANCH  32  33
BRANCH  32  49
ATOM     49  CB  VAL A   4      44.619  19.048  17.557  0.00  0.00    +0.027 C 
ATOM     50  CG2 VAL A   4      43.874  19.608  18.763  0.00  0.00    +0.002 C 
ATOM     51  CG1 VAL A   4      44.930  17.572  17.752  0.00  0.00    +0.002 C 
ENDBRANCH  32  49
ENDBRANCH  29  32
ENDBRANCH  27  28
ENDBRANCH   3  27
TORSDOF 17
REMARK  Name = ../refined-set-2016/4cr9/4cr9_pocket.pdb
REMARK  136 active torsions:
REMARK  status: ('A' for Active; 'I' for Inactive)
REMARK    1  A    between atoms: _1  and  _3
REMARK    2  A    between atoms: _3  and  _4
REMARK    3  A    between atoms: _3  and  _6
REMARK    4  A    between atoms: _9  and  _11
REMARK    5  A    between atoms: _11  and  _12
REMARK    6  A    between atoms: _11  and  _14
REMARK    7  A    between atoms: _16  and  _18
REMARK    8  A    between atoms: _18  and  _19
REMARK    9  A    between atoms: _22  and  _24
REMARK   10  A    between atoms: _24  and  _25
REMARK   11  A    between atoms: _24  and  _27
REMARK   12  A    between atoms: _27  and  _28
REMARK   13  A    between atoms: _33  and  _35
REMARK   14  A    between atoms: _35  and  _36
REMARK   15  A    between atoms: _39  and  _41
REMARK   16  A    between atoms: _41  and  _42
REMARK   17  A    between atoms: _41  and  _44
REMARK   18  A    between atoms: _44  and  _45
REMARK   19  A    between atoms: _48  and  _50
REMARK   20  A    between atoms: _50  and  _51
REMARK   21  A    between atoms: _50  and  _53
REMARK   22  A    between atoms: _56  and  _58
REMARK   23  A    between atoms: _58  and  _59
REMARK   24  A    between atoms: _58  and  _61
REMARK   25  A    between atoms: _61  and  _62
REMARK   26  A    between atoms: _67  and  _68
REMARK   27  A    between atoms: _70  and  _72
REMARK   28  A    between atoms: _72  and  _73
REMARK   29  A    between atoms: _72  and  _75
REMARK   30  A    between atoms: _75  and  _76
REMARK   31  A    between atoms: _76  and  _77
REMARK   32  A    between atoms: _77  and  _78
REMARK   33  A    between atoms: _78  and  _79
REMARK   34  A    between atoms: _83  and  _85
REMARK   35  A    between atoms: _85  and  _86
REMARK   36  A    between atoms: _85  and  _88
REMARK   37  A    between atoms: _88  and  _89
REMARK   38  A    between atoms: _92  and  _94
REMARK   39  A    between atoms: _94  and  _95
REMARK   40  A    between atoms: _94  and  _97
REMARK   41  A    between atoms: _97  and  _98
REMARK   42  A    between atoms: _103  and  _104
REMARK   43  A    between atoms: _106  and  _108
REMARK   44  A    between atoms: _108  and  _109
REMARK   45  A    between atoms: _112  and  _114
REMARK   46  A    between atoms: _114  and  _115
REMARK   47  A    between atoms: _114  and  _117
REMARK   48  A    between atoms: _117  and  _118
REMARK   49  A    between atoms: _118  and  _119
REMARK   50  A    between atoms: _119  and  _120
REMARK   51  A    between atoms: _120  and  _121
REMARK   52  A    between atoms: _125  and  _127
REMARK   53  A    between atoms: _127  and  _128
REMARK   54  A    between atoms: _127  and  _130
REMARK   55  A    between atoms: _130  and  _131
REMARK   56  A    between atoms: _134  and  _136
REMARK   57  A    between atoms: _136  and  _137
REMARK   58  A    between atoms: _140  and  _142
REMARK   59  A    between atoms: _142  and  _143
REMARK   60  A    between atoms: _142  and  _145
REMARK   61  A    between atoms: _145  and  _146
REMARK   62  A    between atoms: _146  and  _260
REMARK   63  A    between atoms: _147  and  _149
REMARK   64  A    between atoms: _149  and  _150
REMARK   65  A    between atoms: _149  and  _152
REMARK   66  A    between atoms: _152  and  _153
REMARK   67  A    between atoms: _153  and  _154
REMARK   68  A    between atoms: _154  and  _155
REMARK   69  A    between atoms: _155  and  _156
REMARK   70  A    between atoms: _160  and  _162
REMARK   71  A    between atoms: _162  and  _163
REMARK   72  A    between atoms: _165  and  _167
REMARK   73  A    between atoms: _167  and  _168
REMARK   74  A    between atoms: _167  and  _170
REMARK   75  A    between atoms: _170  and  _171
REMARK   76  A    between atoms: _174  and  _176
REMARK   77  A    between atoms: _176  and  _177
REMARK   78  A    between atoms: _176  and  _179
REMARK   79  A    between atoms: _179  and  _180
REMARK   80  A    between atoms: _182  and  _184
REMARK   81  A    between atoms: _184  and  _185
REMARK   82  A    between atoms: _187  and  _189
REMARK   83  A    between atoms: _189  and  _190
REMARK   84  A    between atoms: _192  and  _194
REMARK   85  A    between atoms: _194  and  _195
REMARK   86  A    between atoms: _194  and  _197
REMARK   87  A    between atoms: _197  and  _198
REMARK   88  A    between atoms: _201  and  _203
REMARK   89  A    between atoms: _203  and  _204
REMARK   90  A    between atoms: _203  and  _206
REMARK   91  A    between atoms: _206  and  _207
REMARK   92  A    between atoms: _210  and  _212
REMARK   93  A    between atoms: _212  and  _213
REMARK   94  A    between atoms: _212  and  _215
REMARK   95  A    between atoms: _215  and  _216
REMARK   96  A    between atoms: _218  and  _220
REMARK   97  A    between atoms: _220  and  _221
REMARK   98  A    between atoms: _220  and  _223
REMARK   99  A    between atoms: _223  and  _224
REMARK  100  A    between atoms: _234  and  _236
REMARK  101  A    between atoms: _236  and  _237
REMARK  102  A    between atoms: _239  and  _241
REMARK  103  A    between atoms: _241  and  _242
REMARK  104  A    between atoms: _241  and  _244
REMARK  105  A    between atoms: _244  and  _245
REMARK  106  A    between atoms: _245  and  _246
REMARK  107  A    between atoms: _249  and  _251
REMARK  108  A    between atoms: _251  and  _252
REMARK  109  A    between atoms: _254  and  _256
REMARK  110  A    between atoms: _256  and  _257
REMARK  111  A    between atoms: _256  and  _259
REMARK  112  A    between atoms: _259  and  _260
REMARK  113  A    between atoms: _261  and  _263
REMARK  114  A    between atoms: _263  and  _264
REMARK  115  A    between atoms: _267  and  _269
REMARK  116  A    between atoms: _269  and  _270
REMARK  117  A    between atoms: _269  and  _272
REMARK  118  A    between atoms: _272  and  _273
REMARK  119  A    between atoms: _273  and  _274
REMARK  120  A    between atoms: _279  and  _281
REMARK  121  A    between atoms: _281  and  _282
REMARK  122  A    between atoms: _281  and  _284
REMARK  123  A    between atoms: _284  and  _285
REMARK  124  A    between atoms: _285  and  _286
REMARK  125  A    between atoms: _286  and  _287
REMARK  126  A    between atoms: _297  and  _298
REMARK  127  A    between atoms: _303  and  _305
REMARK  128  A    between atoms: _305  and  _306
REMARK  129  A    between atoms: _308  and  _310
REMARK  130  A    between atoms: _310  and  _311
REMARK  131  A    between atoms: _310  and  _313
REMARK  132  A    between atoms: _316  and  _318
REMARK  133  A    between atoms: _318  and  _319
REMARK  134  A    between atoms: _318  and  _321
REMARK  135  A    between atoms: _321  and  _322
REMARK  136  A    between atoms: _327  and  _328
REMARK                            x       y       z     vdW  Elec       q    Type
REMARK                         _______ _______ _______ _____ _____    ______ ____
ROOT
ATOM      1  O   HOH     1      54.402  29.454  10.490  0.00  0.00    +0.000 OA
ENDROOT
TORSDOF 0
REMARK  Name = ../refined-set-2016/4cr9/4cr9_pocket.pdb
REMARK  136 active torsions:
REMARK  status: ('A' for Active; 'I' for Inactive)
REMARK    1  A    between atoms: _1  and  _3
REMARK    2  A    between atoms: _3  and  _4
REMARK    3  A    between atoms: _3  and  _6
REMARK    4  A    between atoms: _9  and  _11
REMARK    5  A    between atoms: _11  and  _12
REMARK    6  A    between atoms: _11  and  _14
REMARK    7  A    between atoms: _16  and  _18
REMARK    8  A    between atoms: _18  and  _19
REMARK    9  A    between atoms: _22  and  _24
REMARK   10  A    between atoms: _24  and  _25
REMARK   11  A    between atoms: _24  and  _27
REMARK   12  A    between atoms: _27  and  _28
REMARK   13  A    between atoms: _33  and  _35
REMARK   14  A    between atoms: _35  and  _36
REMARK   15  A    between atoms: _39  and  _41
REMARK   16  A    between atoms: _41  and  _42
REMARK   17  A    between atoms: _41  and  _44
REMARK   18  A    between atoms: _44  and  _45
REMARK   19  A    between atoms: _48  and  _50
REMARK   20  A    between atoms: _50  and  _51
REMARK   21  A    between atoms: _50  and  _53
REMARK   22  A    between atoms: _56  and  _58
REMARK   23  A    between atoms: _58  and  _59
REMARK   24  A    between atoms: _58  and  _61
REMARK   25  A    between atoms: _61  and  _62
REMARK   26  A    between atoms: _67  and  _68
REMARK   27  A    between atoms: _70  and  _72
REMARK   28  A    between atoms: _72  and  _73
REMARK   29  A    between atoms: _72  and  _75
REMARK   30  A    between atoms: _75  and  _76
REMARK   31  A    between atoms: _76  and  _77
REMARK   32  A    between atoms: _77  and  _78
REMARK   33  A    between atoms: _78  and  _79
REMARK   34  A    between atoms: _83  and  _85
REMARK   35  A    between atoms: _85  and  _86
REMARK   36  A    between atoms: _85  and  _88
REMARK   37  A    between atoms: _88  and  _89
REMARK   38  A    between atoms: _92  and  _94
REMARK   39  A    between atoms: _94  and  _95
REMARK   40  A    between atoms: _94  and  _97
REMARK   41  A    between atoms: _97  and  _98
REMARK   42  A    between atoms: _103  and  _104
REMARK   43  A    between atoms: _106  and  _108
REMARK   44  A    between atoms: _108  and  _109
REMARK   45  A    between atoms: _112  and  _114
REMARK   46  A    between atoms: _114  and  _115
REMARK   47  A    between atoms: _114  and  _117
REMARK   48  A    between atoms: _117  and  _118
REMARK   49  A    between atoms: _118  and  _119
REMARK   50  A    between atoms: _119  and  _120
REMARK   51  A    between atoms: _120  and  _121
REMARK   52  A    between atoms: _125  and  _127
REMARK   53  A    between atoms: _127  and  _128
REMARK   54  A    between atoms: _127  and  _130
REMARK   55  A    between atoms: _130  and  _131
REMARK   56  A    between atoms: _134  and  _136
REMARK   57  A    between atoms: _136  and  _137
REMARK   58  A    between atoms: _140  and  _142
REMARK   59  A    between atoms: _142  and  _143
REMARK   60  A    between atoms: _142  and  _145
REMARK   61  A    between atoms: _145  and  _146
REMARK   62  A    between atoms: _146  and  _260
REMARK   63  A    between atoms: _147  and  _149
REMARK   64  A    between atoms: _149  and  _150
REMARK   65  A    between atoms: _149  and  _152
REMARK   66  A    between atoms: _152  and  _153
REMARK   67  A    between atoms: _153  and  _154
REMARK   68  A    between atoms: _154  and  _155
REMARK   69  A    between atoms: _155  and  _156
REMARK   70  A    between atoms: _160  and  _162
REMARK   71  A    between atoms: _162  and  _163
REMARK   72  A    between atoms: _165  and  _167
REMARK   73  A    between atoms: _167  and  _168
REMARK   74  A    between atoms: _167  and  _170
REMARK   75  A    between atoms: _170  and  _171
REMARK   76  A    between atoms: _174  and  _176
REMARK   77  A    between atoms: _176  and  _177
REMARK   78  A    between atoms: _176  and  _179
REMARK   79  A    between atoms: _179  and  _180
REMARK   80  A    between atoms: _182  and  _184
REMARK   81  A    between atoms: _184  and  _185
REMARK   82  A    between atoms: _187  and  _189
REMARK   83  A    between atoms: _189  and  _190
REMARK   84  A    between atoms: _192  and  _194
REMARK   85  A    between atoms: _194  and  _195
REMARK   86  A    between atoms: _194  and  _197
REMARK   87  A    between atoms: _197  and  _198
REMARK   88  A    between atoms: _201  and  _203
REMARK   89  A    between atoms: _203  and  _204
REMARK   90  A    between atoms: _203  and  _206
REMARK   91  A    between atoms: _206  and  _207
REMARK   92  A    between atoms: _210  and  _212
REMARK   93  A    between atoms: _212  and  _213
REMARK   94  A    between atoms: _212  and  _215
REMARK   95  A    between atoms: _215  and  _216
REMARK   96  A    between atoms: _218  and  _220
REMARK   97  A    between atoms: _220  and  _221
REMARK   98  A    between atoms: _220  and  _223
REMARK   99  A    between atoms: _223  and  _224
REMARK  100  A    between atoms: _234  and  _236
REMARK  101  A    between atoms: _236  and  _237
REMARK  102  A    between atoms: _239  and  _241
REMARK  103  A    between atoms: _241  and  _242
REMARK  104  A    between atoms: _241  and  _244
REMARK  105  A    between atoms: _244  and  _245
REMARK  106  A    between atoms: _245  and  _246
REMARK  107  A    between atoms: _249  and  _251
REMARK  108  A    between atoms: _251  and  _252
REMARK  109  A    between atoms: _254  and  _256
REMARK  110  A    between atoms: _256  and  _257
REMARK  111  A    between atoms: _256  and  _259
REMARK  112  A    between atoms: _259  and  _260
REMARK  113  A    between atoms: _261  and  _263
REMARK  114  A    between atoms: _263  and  _264
REMARK  115  A    between atoms: _267  and  _269
REMARK  116  A    between atoms: _269  and  _270
REMARK  117  A    between atoms: _269  and  _272
REMARK  118  A    between atoms: _272  and  _273
REMARK  119  A    between atoms: _273  and  _274
REMARK  120  A    between atoms: _279  and  _281
REMARK  121  A    between atoms: _281  and  _282
REMARK  122  A    between atoms: _281  and  _284
REMARK  123  A    between atoms: _284  and  _285
REMARK  124  A    between atoms: _285  and  _286
REMARK  125  A    between atoms: _286  and  _287
REMARK  126  A    between atoms: _297  and  _298
REMARK  127  A    between atoms: _303  and  _305
REMARK  128  A    between atoms: _305  and  _306
REMARK  129  A    between atoms: _308  and  _310
REMARK  130  A    between atoms: _310  and  _311
REMARK  131  A    between atoms: _310  and  _313
REMARK  132  A    between atoms: _316  and  _318
REMARK  133  A    between atoms: _318  and  _319
REMARK  134  A    between atoms: _318  and  _321
REMARK  135  A    between atoms: _321  and  _322
REMARK  136  A    between atoms: _327  and  _328
REMARK                            x       y       z     vdW  Elec       q    Type
REMARK                         _______ _______ _______ _____ _____    ______ ____
ROOT
ATOM      1  O   HOH     1      54.242  29.426  13.412  0.00  0.00    +0.000 OA
ENDROOT
TORSDOF 0
REMARK  Name = ../refined-set-2016/4cr9/4cr9_pocket.pdb
REMARK  136 active torsions:
REMARK  status: ('A' for Active; 'I' for Inactive)
REMARK    1  A    between atoms: _1  and  _3
REMARK    2  A    between atoms: _3  and  _4
REMARK    3  A    between atoms: _3  and  _6
REMARK    4  A    between atoms: _9  and  _11
REMARK    5  A    between atoms: _11  and  _12
REMARK    6  A    between atoms: _11  and  _14
REMARK    7  A    between atoms: _16  and  _18
REMARK    8  A    between atoms: _18  and  _19
REMARK    9  A    between atoms: _22  and  _24
REMARK   10  A    between atoms: _24  and  _25
REMARK   11  A    between atoms: _24  and  _27
REMARK   12  A    between atoms: _27  and  _28
REMARK   13  A    between atoms: _33  and  _35
REMARK   14  A    between atoms: _35  and  _36
REMARK   15  A    between atoms: _39  and  _41
REMARK   16  A    between atoms: _41  and  _42
REMARK   17  A    between atoms: _41  and  _44
REMARK   18  A    between atoms: _44  and  _45
REMARK   19  A    between atoms: _48  and  _50
REMARK   20  A    between atoms: _50  and  _51
REMARK   21  A    between atoms: _50  and  _53
REMARK   22  A    between atoms: _56  and  _58
REMARK   23  A    between atoms: _58  and  _59
REMARK   24  A    between atoms: _58  and  _61
REMARK   25  A    between atoms: _61  and  _62
REMARK   26  A    between atoms: _67  and  _68
REMARK   27  A    between atoms: _70  and  _72
REMARK   28  A    between atoms: _72  and  _73
REMARK   29  A    between atoms: _72  and  _75
REMARK   30  A    between atoms: _75  and  _76
REMARK   31  A    between atoms: _76  and  _77
REMARK   32  A    between atoms: _77  and  _78
REMARK   33  A    between atoms: _78  and  _79
REMARK   34  A    between atoms: _83  and  _85
REMARK   35  A    between atoms: _85  and  _86
REMARK   36  A    between atoms: _85  and  _88
REMARK   37  A    between atoms: _88  and  _89
REMARK   38  A    between atoms: _92  and  _94
REMARK   39  A    between atoms: _94  and  _95
REMARK   40  A    between atoms: _94  and  _97
REMARK   41  A    between atoms: _97  and  _98
REMARK   42  A    between atoms: _103  and  _104
REMARK   43  A    between atoms: _106  and  _108
REMARK   44  A    between atoms: _108  and  _109
REMARK   45  A    between atoms: _112  and  _114
REMARK   46  A    between atoms: _114  and  _115
REMARK   47  A    between atoms: _114  and  _117
REMARK   48  A    between atoms: _117  and  _118
REMARK   49  A    between atoms: _118  and  _119
REMARK   50  A    between atoms: _119  and  _120
REMARK   51  A    between atoms: _120  and  _121
REMARK   52  A    between atoms: _125  and  _127
REMARK   53  A    between atoms: _127  and  _128
REMARK   54  A    between atoms: _127  and  _130
REMARK   55  A    between atoms: _130  and  _131
REMARK   56  A    between atoms: _134  and  _136
REMARK   57  A    between atoms: _136  and  _137
REMARK   58  A    between atoms: _140  and  _142
REMARK   59  A    between atoms: _142  and  _143
REMARK   60  A    between atoms: _142  and  _145
REMARK   61  A    between atoms: _145  and  _146
REMARK   62  A    between atoms: _146  and  _260
REMARK   63  A    between atoms: _147  and  _149
REMARK   64  A    between atoms: _149  and  _150
REMARK   65  A    between atoms: _149  and  _152
REMARK   66  A    between atoms: _152  and  _153
REMARK   67  A    between atoms: _153  and  _154
REMARK   68  A    between atoms: _154  and  _155
REMARK   69  A    between atoms: _155  and  _156
REMARK   70  A    between atoms: _160  and  _162
REMARK   71  A    between atoms: _162  and  _163
REMARK   72  A    between atoms: _165  and  _167
REMARK   73  A    between atoms: _167  and  _168
REMARK   74  A    between atoms: _167  and  _170
REMARK   75  A    between atoms: _170  and  _171
REMARK   76  A    between atoms: _174  and  _176
REMARK   77  A    between atoms: _176  and  _177
REMARK   78  A    between atoms: _176  and  _179
REMARK   79  A    between atoms: _179  and  _180
REMARK   80  A    between atoms: _182  and  _184
REMARK   81  A    between atoms: _184  and  _185
REMARK   82  A    between atoms: _187  and  _189
REMARK   83  A    between atoms: _189  and  _190
REMARK   84  A    between atoms: _192  and  _194
REMARK   85  A    between atoms: _194  and  _195
REMARK   86  A    between atoms: _194  and  _197
REMARK   87  A    between atoms: _197  and  _198
REMARK   88  A    between atoms: _201  and  _203
REMARK   89  A    between atoms: _203  and  _204
REMARK   90  A    between atoms: _203  and  _206
REMARK   91  A    between atoms: _206  and  _207
REMARK   92  A    between atoms: _210  and  _212
REMARK   93  A    between atoms: _212  and  _213
REMARK   94  A    between atoms: _212  and  _215
REMARK   95  A    between atoms: _215  and  _216
REMARK   96  A    between atoms: _218  and  _220
REMARK   97  A    between atoms: _220  and  _221
REMARK   98  A    between atoms: _220  and  _223
REMARK   99  A    between atoms: _223  and  _224
REMARK  100  A    between atoms: _234  and  _236
REMARK  101  A    between atoms: _236  and  _237
REMARK  102  A    between atoms: _239  and  _241
REMARK  103  A    between atoms: _241  and  _242
REMARK  104  A    between atoms: _241  and  _244
REMARK  105  A    between atoms: _244  and  _245
REMARK  106  A    between atoms: _245  and  _246
REMARK  107  A    between atoms: _249  and  _251
REMARK  108  A    between atoms: _251  and  _252
REMARK  109  A    between atoms: _254  and  _256
REMARK  110  A    between atoms: _256  and  _257
REMARK  111  A    between atoms: _256  and  _259
REMARK  112  A    between atoms: _259  and  _260
REMARK  113  A    between atoms: _261  and  _263
REMARK  114  A    between atoms: _263  and  _264
REMARK  115  A    between atoms: _267  and  _269
REMARK  116  A    between atoms: _269  and  _270
REMARK  117  A    between atoms: _269  and  _272
REMARK  118  A    between atoms: _272  and  _273
REMARK  119  A    between atoms: _273  and  _274
REMARK  120  A    between atoms: _279  and  _281
REMARK  121  A    between atoms: _281  and  _282
REMARK  122  A    between atoms: _281  and  _284
REMARK  123  A    between atoms: _284  and  _285
REMARK  124  A    between atoms: _285  and  _286
REMARK  125  A    between atoms: _286  and  _287
REMARK  126  A    between atoms: _297  and  _298
REMARK  127  A    between atoms: _303  and  _305
REMARK  128  A    between atoms: _305  and  _306
REMARK  129  A    between atoms: _308  and  _310
REMARK  130  A    between atoms: _310  and  _311
REMARK  131  A    between atoms: _310  and  _313
REMARK  132  A    between atoms: _316  and  _318
REMARK  133  A    between atoms: _318  and  _319
REMARK  134  A    between atoms: _318  and  _321
REMARK  135  A    between atoms: _321  and  _322
REMARK  136  A    between atoms: _327  and  _328
REMARK                            x       y       z     vdW  Elec       q    Type
REMARK                         _______ _______ _______ _____ _____    ______ ____
ROOT
ATOM      1  O   HOH     1      55.068  28.409  16.347  0.00  0.00    +0.000 OA
ENDROOT
TORSDOF 0
REMARK  Name = ../refined-set-2016/4cr9/4cr9_pocket.pdb
REMARK  136 active torsions:
REMARK  status: ('A' for Active; 'I' for Inactive)
REMARK    1  A    between atoms: _1  and  _3
REMARK    2  A    between atoms: _3  and  _4
REMARK    3  A    between atoms: _3  and  _6
REMARK    4  A    between atoms: _9  and  _11
REMARK    5  A    between atoms: _11  and  _12
REMARK    6  A    between atoms: _11  and  _14
REMARK    7  A    between atoms: _16  and  _18
REMARK    8  A    between atoms: _18  and  _19
REMARK    9  A    between atoms: _22  and  _24
REMARK   10  A    between atoms: _24  and  _25
REMARK   11  A    between atoms: _24  and  _27
REMARK   12  A    between atoms: _27  and  _28
REMARK   13  A    between atoms: _33  and  _35
REMARK   14  A    between atoms: _35  and  _36
REMARK   15  A    between atoms: _39  and  _41
REMARK   16  A    between atoms: _41  and  _42
REMARK   17  A    between atoms: _41  and  _44
REMARK   18  A    between atoms: _44  and  _45
REMARK   19  A    between atoms: _48  and  _50
REMARK   20  A    between atoms: _50  and  _51
REMARK   21  A    between atoms: _50  and  _53
REMARK   22  A    between atoms: _56  and  _58
REMARK   23  A    between atoms: _58  and  _59
REMARK   24  A    between atoms: _58  and  _61
REMARK   25  A    between atoms: _61  and  _62
REMARK   26  A    between atoms: _67  and  _68
REMARK   27  A    between atoms: _70  and  _72
REMARK   28  A    between atoms: _72  and  _73
REMARK   29  A    between atoms: _72  and  _75
REMARK   30  A    between atoms: _75  and  _76
REMARK   31  A    between atoms: _76  and  _77
REMARK   32  A    between atoms: _77  and  _78
REMARK   33  A    between atoms: _78  and  _79
REMARK   34  A    between atoms: _83  and  _85
REMARK   35  A    between atoms: _85  and  _86
REMARK   36  A    between atoms: _85  and  _88
REMARK   37  A    between atoms: _88  and  _89
REMARK   38  A    between atoms: _92  and  _94
REMARK   39  A    between atoms: _94  and  _95
REMARK   40  A    between atoms: _94  and  _97
REMARK   41  A    between atoms: _97  and  _98
REMARK   42  A    between atoms: _103  and  _104
REMARK   43  A    between atoms: _106  and  _108
REMARK   44  A    between atoms: _108  and  _109
REMARK   45  A    between atoms: _112  and  _114
REMARK   46  A    between atoms: _114  and  _115
REMARK   47  A    between atoms: _114  and  _117
REMARK   48  A    between atoms: _117  and  _118
REMARK   49  A    between atoms: _118  and  _119
REMARK   50  A    between atoms: _119  and  _120
REMARK   51  A    between atoms: _120  and  _121
REMARK   52  A    between atoms: _125  and  _127
REMARK   53  A    between atoms: _127  and  _128
REMARK   54  A    between atoms: _127  and  _130
REMARK   55  A    between atoms: _130  and  _131
REMARK   56  A    between atoms: _134  and  _136
REMARK   57  A    between atoms: _136  and  _137
REMARK   58  A    between atoms: _140  and  _142
REMARK   59  A    between atoms: _142  and  _143
REMARK   60  A    between atoms: _142  and  _145
REMARK   61  A    between atoms: _145  and  _146
REMARK   62  A    between atoms: _146  and  _260
REMARK   63  A    between atoms: _147  and  _149
REMARK   64  A    between atoms: _149  and  _150
REMARK   65  A    between atoms: _149  and  _152
REMARK   66  A    between atoms: _152  and  _153
REMARK   67  A    between atoms: _153  and  _154
REMARK   68  A    between atoms: _154  and  _155
REMARK   69  A    between atoms: _155  and  _156
REMARK   70  A    between atoms: _160  and  _162
REMARK   71  A    between atoms: _162  and  _163
REMARK   72  A    between atoms: _165  and  _167
REMARK   73  A    between atoms: _167  and  _168
REMARK   74  A    between atoms: _167  and  _170
REMARK   75  A    between atoms: _170  and  _171
REMARK   76  A    between atoms: _174  and  _176
REMARK   77  A    between atoms: _176  and  _177
REMARK   78  A    between atoms: _176  and  _179
REMARK   79  A    between atoms: _179  and  _180
REMARK   80  A    between atoms: _182  and  _184
REMARK   81  A    between atoms: _184  and  _185
REMARK   82  A    between atoms: _187  and  _189
REMARK   83  A    between atoms: _189  and  _190
REMARK   84  A    between atoms: _192  and  _194
REMARK   85  A    between atoms: _194  and  _195
REMARK   86  A    between atoms: _194  and  _197
REMARK   87  A    between atoms: _197  and  _198
REMARK   88  A    between atoms: _201  and  _203
REMARK   89  A    between atoms: _203  and  _204
REMARK   90  A    between atoms: _203  and  _206
REMARK   91  A    between atoms: _206  and  _207
REMARK   92  A    between atoms: _210  and  _212
REMARK   93  A    between atoms: _212  and  _213
REMARK   94  A    between atoms: _212  and  _215
REMARK   95  A    between atoms: _215  and  _216
REMARK   96  A    between atoms: _218  and  _220
REMARK   97  A    between atoms: _220  and  _221
REMARK   98  A    between atoms: _220  and  _223
REMARK   99  A    between atoms: _223  and  _224
REMARK  100  A    between atoms: _234  and  _236
REMARK  101  A    between atoms: _236  and  _237
REMARK  102  A    between atoms: _239  and  _241
REMARK  103  A    between atoms: _241  and  _242
REMARK  104  A    between atoms: _241  and  _244
REMARK  105  A    between atoms: _244  and  _245
REMARK  106  A    between atoms: _245  and  _246
REMARK  107  A    between atoms: _249  and  _251
REMARK  108  A    between atoms: _251  and  _252
REMARK  109  A    between atoms: _254  and  _256
REMARK  110  A    between atoms: _256  and  _257
REMARK  111  A    between atoms: _256  and  _259
REMARK  112  A    between atoms: _259  and  _260
REMARK  113  A    between atoms: _261  and  _263
REMARK  114  A    between atoms: _263  and  _264
REMARK  115  A    between atoms: _267  and  _269
REMARK  116  A    between atoms: _269  and  _270
REMARK  117  A    between atoms: _269  and  _272
REMARK  118  A    between atoms: _272  and  _273
REMARK  119  A    between atoms: _273  and  _274
REMARK  120  A    between atoms: _279  and  _281
REMARK  121  A    between atoms: _281  and  _282
REMARK  122  A    between atoms: _281  and  _284
REMARK  123  A    between atoms: _284  and  _285
REMARK  124  A    between atoms: _285  and  _286
REMARK  125  A    between atoms: _286  and  _287
REMARK  126  A    between atoms: _297  and  _298
REMARK  127  A    between atoms: _303  and  _305
REMARK  128  A    between atoms: _305  and  _306
REMARK  129  A    between atoms: _308  and  _310
REMARK  130  A    between atoms: _310  and  _311
REMARK  131  A    between atoms: _310  and  _313
REMARK  132  A    between atoms: _316  and  _318
REMARK  133  A    between atoms: _318  and  _319
REMARK  134  A    between atoms: _318  and  _321
REMARK  135  A    between atoms: _321  and  _322
REMARK  136  A    between atoms: _327  and  _328
REMARK                            x       y       z     vdW  Elec       q    Type
REMARK                         _______ _______ _______ _____ _____    ______ ____
ROOT
ATOM      1  O   HOH     1      52.450  17.059  18.254  0.00  0.00    +0.000 OA
ENDROOT
TORSDOF 0
REMARK  Name = ../refined-set-2016/4cr9/4cr9_pocket.pdb
REMARK  136 active torsions:
REMARK  status: ('A' for Active; 'I' for Inactive)
REMARK    1  A    between atoms: _1  and  _3
REMARK    2  A    between atoms: _3  and  _4
REMARK    3  A    between atoms: _3  and  _6
REMARK    4  A    between atoms: _9  and  _11
REMARK    5  A    between atoms: _11  and  _12
REMARK    6  A    between atoms: _11  and  _14
REMARK    7  A    between atoms: _16  and  _18
REMARK    8  A    between atoms: _18  and  _19
REMARK    9  A    between atoms: _22  and  _24
REMARK   10  A    between atoms: _24  and  _25
REMARK   11  A    between atoms: _24  and  _27
REMARK   12  A    between atoms: _27  and  _28
REMARK   13  A    between atoms: _33  and  _35
REMARK   14  A    between atoms: _35  and  _36
REMARK   15  A    between atoms: _39  and  _41
REMARK   16  A    between atoms: _41  and  _42
REMARK   17  A    between atoms: _41  and  _44
REMARK   18  A    between atoms: _44  and  _45
REMARK   19  A    between atoms: _48  and  _50
REMARK   20  A    between atoms: _50  and  _51
REMARK   21  A    between atoms: _50  and  _53
REMARK   22  A    between atoms: _56  and  _58
REMARK   23  A    between atoms: _58  and  _59
REMARK   24  A    between atoms: _58  and  _61
REMARK   25  A    between atoms: _61  and  _62
REMARK   26  A    between atoms: _67  and  _68
REMARK   27  A    between atoms: _70  and  _72
REMARK   28  A    between atoms: _72  and  _73
REMARK   29  A    between atoms: _72  and  _75
REMARK   30  A    between atoms: _75  and  _76
REMARK   31  A    between atoms: _76  and  _77
REMARK   32  A    between atoms: _77  and  _78
REMARK   33  A    between atoms: _78  and  _79
REMARK   34  A    between atoms: _83  and  _85
REMARK   35  A    between atoms: _85  and  _86
REMARK   36  A    between atoms: _85  and  _88
REMARK   37  A    between atoms: _88  and  _89
REMARK   38  A    between atoms: _92  and  _94
REMARK   39  A    between atoms: _94  and  _95
REMARK   40  A    between atoms: _94  and  _97
REMARK   41  A    between atoms: _97  and  _98
REMARK   42  A    between atoms: _103  and  _104
REMARK   43  A    between atoms: _106  and  _108
REMARK   44  A    between atoms: _108  and  _109
REMARK   45  A    between atoms: _112  and  _114
REMARK   46  A    between atoms: _114  and  _115
REMARK   47  A    between atoms: _114  and  _117
REMARK   48  A    between atoms: _117  and  _118
REMARK   49  A    between atoms: _118  and  _119
REMARK   50  A    between atoms: _119  and  _120
REMARK   51  A    between atoms: _120  and  _121
REMARK   52  A    between atoms: _125  and  _127
REMARK   53  A    between atoms: _127  and  _128
REMARK   54  A    between atoms: _127  and  _130
REMARK   55  A    between atoms: _130  and  _131
REMARK   56  A    between atoms: _134  and  _136
REMARK   57  A    between atoms: _136  and  _137
REMARK   58  A    between atoms: _140  and  _142
REMARK   59  A    between atoms: _142  and  _143
REMARK   60  A    between atoms: _142  and  _145
REMARK   61  A    between atoms: _145  and  _146
REMARK   62  A    between atoms: _146  and  _260
REMARK   63  A    between atoms: _147  and  _149
REMARK   64  A    between atoms: _149  and  _150
REMARK   65  A    between atoms: _149  and  _152
REMARK   66  A    between atoms: _152  and  _153
REMARK   67  A    between atoms: _153  and  _154
REMARK   68  A    between atoms: _154  and  _155
REMARK   69  A    between atoms: _155  and  _156
REMARK   70  A    between atoms: _160  and  _162
REMARK   71  A    between atoms: _162  and  _163
REMARK   72  A    between atoms: _165  and  _167
REMARK   73  A    between atoms: _167  and  _168
REMARK   74  A    between atoms: _167  and  _170
REMARK   75  A    between atoms: _170  and  _171
REMARK   76  A    between atoms: _174  and  _176
REMARK   77  A    between atoms: _176  and  _177
REMARK   78  A    between atoms: _176  and  _179
REMARK   79  A    between atoms: _179  and  _180
REMARK   80  A    between atoms: _182  and  _184
REMARK   81  A    between atoms: _184  and  _185
REMARK   82  A    between atoms: _187  and  _189
REMARK   83  A    between atoms: _189  and  _190
REMARK   84  A    between atoms: _192  and  _194
REMARK   85  A    between atoms: _194  and  _195
REMARK   86  A    between atoms: _194  and  _197
REMARK   87  A    between atoms: _197  and  _198
REMARK   88  A    between atoms: _201  and  _203
REMARK   89  A    between atoms: _203  and  _204
REMARK   90  A    between atoms: _203  and  _206
REMARK   91  A    between atoms: _206  and  _207
REMARK   92  A    between atoms: _210  and  _212
REMARK   93  A    between atoms: _212  and  _213
REMARK   94  A    between atoms: _212  and  _215
REMARK   95  A    between atoms: _215  and  _216
REMARK   96  A    between atoms: _218  and  _220
REMARK   97  A    between atoms: _220  and  _221
REMARK   98  A    between atoms: _220  and  _223
REMARK   99  A    between atoms: _223  and  _224
REMARK  100  A    between atoms: _234  and  _236
REMARK  101  A    between atoms: _236  and  _237
REMARK  102  A    between atoms: _239  and  _241
REMARK  103  A    between atoms: _241  and  _242
REMARK  104  A    between atoms: _241  and  _244
REMARK  105  A    between atoms: _244  and  _245
REMARK  106  A    between atoms: _245  and  _246
REMARK  107  A    between atoms: _249  and  _251
REMARK  108  A    between atoms: _251  and  _252
REMARK  109  A    between atoms: _254  and  _256
REMARK  110  A    between atoms: _256  and  _257
REMARK  111  A    between atoms: _256  and  _259
REMARK  112  A    between atoms: _259  and  _260
REMARK  113  A    between atoms: _261  and  _263
REMARK  114  A    between atoms: _263  and  _264
REMARK  115  A    between atoms: _267  and  _269
REMARK  116  A    between atoms: _269  and  _270
REMARK  117  A    between atoms: _269  and  _272
REMARK  118  A    between atoms: _272  and  _273
REMARK  119  A    between atoms: _273  and  _274
REMARK  120  A    between atoms: _279  and  _281
REMARK  121  A    between atoms: _281  and  _282
REMARK  122  A    between atoms: _281  and  _284
REMARK  123  A    between atoms: _284  and  _285
REMARK  124  A    between atoms: _285  and  _286
REMARK  125  A    between atoms: _286  and  _287
REMARK  126  A    between atoms: _297  and  _298
REMARK  127  A    between atoms: _303  and  _305
REMARK  128  A    between atoms: _305  and  _306
REMARK  129  A    between atoms: _308  and  _310
REMARK  130  A    between atoms: _310  and  _311
REMARK  131  A    between atoms: _310  and  _313
REMARK  132  A    between atoms: _316  and  _318
REMARK  133  A    between atoms: _318  and  _319
REMARK  134  A    between atoms: _318  and  _321
REMARK  135  A    between atoms: _321  and  _322
REMARK  136  A    between atoms: _327  and  _328
REMARK                            x       y       z     vdW  Elec       q    Type
REMARK                         _______ _______ _______ _____ _____    ______ ____
ROOT
ATOM      1  O   HOH     1      52.822  22.267  18.232  0.00  0.00    +0.000 OA
ENDROOT
TORSDOF 0
REMARK  Name = ../refined-set-2016/4cr9/4cr9_pocket.pdb
REMARK  136 active torsions:
REMARK  status: ('A' for Active; 'I' for Inactive)
REMARK    1  A    between atoms: _1  and  _3
REMARK    2  A    between atoms: _3  and  _4
REMARK    3  A    between atoms: _3  and  _6
REMARK    4  A    between atoms: _9  and  _11
REMARK    5  A    between atoms: _11  and  _12
REMARK    6  A    between atoms: _11  and  _14
REMARK    7  A    between atoms: _16  and  _18
REMARK    8  A    between atoms: _18  and  _19
REMARK    9  A    between atoms: _22  and  _24
REMARK   10  A    between atoms: _24  and  _25
REMARK   11  A    between atoms: _24  and  _27
REMARK   12  A    between atoms: _27  and  _28
REMARK   13  A    between atoms: _33  and  _35
REMARK   14  A    between atoms: _35  and  _36
REMARK   15  A    between atoms: _39  and  _41
REMARK   16  A    between atoms: _41  and  _42
REMARK   17  A    between atoms: _41  and  _44
REMARK   18  A    between atoms: _44  and  _45
REMARK   19  A    between atoms: _48  and  _50
REMARK   20  A    between atoms: _50  and  _51
REMARK   21  A    between atoms: _50  and  _53
REMARK   22  A    between atoms: _56  and  _58
REMARK   23  A    between atoms: _58  and  _59
REMARK   24  A    between atoms: _58  and  _61
REMARK   25  A    between atoms: _61  and  _62
REMARK   26  A    between atoms: _67  and  _68
REMARK   27  A    between atoms: _70  and  _72
REMARK   28  A    between atoms: _72  and  _73
REMARK   29  A    between atoms: _72  and  _75
REMARK   30  A    between atoms: _75  and  _76
REMARK   31  A    between atoms: _76  and  _77
REMARK   32  A    between atoms: _77  and  _78
REMARK   33  A    between atoms: _78  and  _79
REMARK   34  A    between atoms: _83  and  _85
REMARK   35  A    between atoms: _85  and  _86
REMARK   36  A    between atoms: _85  and  _88
REMARK   37  A    between atoms: _88  and  _89
REMARK   38  A    between atoms: _92  and  _94
REMARK   39  A    between atoms: _94  and  _95
REMARK   40  A    between atoms: _94  and  _97
REMARK   41  A    between atoms: _97  and  _98
REMARK   42  A    between atoms: _103  and  _104
REMARK   43  A    between atoms: _106  and  _108
REMARK   44  A    between atoms: _108  and  _109
REMARK   45  A    between atoms: _112  and  _114
REMARK   46  A    between atoms: _114  and  _115
REMARK   47  A    between atoms: _114  and  _117
REMARK   48  A    between atoms: _117  and  _118
REMARK   49  A    between atoms: _118  and  _119
REMARK   50  A    between atoms: _119  and  _120
REMARK   51  A    between atoms: _120  and  _121
REMARK   52  A    between atoms: _125  and  _127
REMARK   53  A    between atoms: _127  and  _128
REMARK   54  A    between atoms: _127  and  _130
REMARK   55  A    between atoms: _130  and  _131
REMARK   56  A    between atoms: _134  and  _136
REMARK   57  A    between atoms: _136  and  _137
REMARK   58  A    between atoms: _140  and  _142
REMARK   59  A    between atoms: _142  and  _143
REMARK   60  A    between atoms: _142  and  _145
REMARK   61  A    between atoms: _145  and  _146
REMARK   62  A    between atoms: _146  and  _260
REMARK   63  A    between atoms: _147  and  _149
REMARK   64  A    between atoms: _149  and  _150
REMARK   65  A    between atoms: _149  and  _152
REMARK   66  A    between atoms: _152  and  _153
REMARK   67  A    between atoms: _153  and  _154
REMARK   68  A    between atoms: _154  and  _155
REMARK   69  A    between atoms: _155  and  _156
REMARK   70  A    between atoms: _160  and  _162
REMARK   71  A    between atoms: _162  and  _163
REMARK   72  A    between atoms: _165  and  _167
REMARK   73  A    between atoms: _167  and  _168
REMARK   74  A    between atoms: _167  and  _170
REMARK   75  A    between atoms: _170  and  _171
REMARK   76  A    between atoms: _174  and  _176
REMARK   77  A    between atoms: _176  and  _177
REMARK   78  A    between atoms: _176  and  _179
REMARK   79  A    between atoms: _179  and  _180
REMARK   80  A    between atoms: _182  and  _184
REMARK   81  A    between atoms: _184  and  _185
REMARK   82  A    between atoms: _187  and  _189
REMARK   83  A    between atoms: _189  and  _190
REMARK   84  A    between atoms: _192  and  _194
REMARK   85  A    between atoms: _194  and  _195
REMARK   86  A    between atoms: _194  and  _197
REMARK   87  A    between atoms: _197  and  _198
REMARK   88  A    between atoms: _201  and  _203
REMARK   89  A    between atoms: _203  and  _204
REMARK   90  A    between atoms: _203  and  _206
REMARK   91  A    between atoms: _206  and  _207
REMARK   92  A    between atoms: _210  and  _212
REMARK   93  A    between atoms: _212  and  _213
REMARK   94  A    between atoms: _212  and  _215
REMARK   95  A    between atoms: _215  and  _216
REMARK   96  A    between atoms: _218  and  _220
REMARK   97  A    between atoms: _220  and  _221
REMARK   98  A    between atoms: _220  and  _223
REMARK   99  A    between atoms: _223  and  _224
REMARK  100  A    between atoms: _234  and  _236
REMARK  101  A    between atoms: _236  and  _237
REMARK  102  A    between atoms: _239  and  _241
REMARK  103  A    between atoms: _241  and  _242
REMARK  104  A    between atoms: _241  and  _244
REMARK  105  A    between atoms: _244  and  _245
REMARK  106  A    between atoms: _245  and  _246
REMARK  107  A    between atoms: _249  and  _251
REMARK  108  A    between atoms: _251  and  _252
REMARK  109  A    between atoms: _254  and  _256
REMARK  110  A    between atoms: _256  and  _257
REMARK  111  A    between atoms: _256  and  _259
REMARK  112  A    between atoms: _259  and  _260
REMARK  113  A    between atoms: _261  and  _263
REMARK  114  A    between atoms: _263  and  _264
REMARK  115  A    between atoms: _267  and  _269
REMARK  116  A    between atoms: _269  and  _270
REMARK  117  A    between atoms: _269  and  _272
REMARK  118  A    between atoms: _272  and  _273
REMARK  119  A    between atoms: _273  and  _274
REMARK  120  A    between atoms: _279  and  _281
REMARK  121  A    between atoms: _281  and  _282
REMARK  122  A    between atoms: _281  and  _284
REMARK  123  A    between atoms: _284  and  _285
REMARK  124  A    between atoms: _285  and  _286
REMARK  125  A    between atoms: _286  and  _287
REMARK  126  A    between atoms: _297  and  _298
REMARK  127  A    between atoms: _303  and  _305
REMARK  128  A    between atoms: _305  and  _306
REMARK  129  A    between atoms: _308  and  _310
REMARK  130  A    between atoms: _310  and  _311
REMARK  131  A    between atoms: _310  and  _313
REMARK  132  A    between atoms: _316  and  _318
REMARK  133  A    between atoms: _318  and  _319
REMARK  134  A    between atoms: _318  and  _321
REMARK  135  A    between atoms: _321  and  _322
REMARK  136  A    between atoms: _327  and  _328
REMARK                            x       y       z     vdW  Elec       q    Type
REMARK                         _______ _______ _______ _____ _____    ______ ____
ROOT
ATOM      1  O   HOH     1      54.469  13.982   6.205  0.00  0.00    +0.000 OA
ENDROOT
TORSDOF 0
REMARK  Name = ../refined-set-2016/4cr9/4cr9_pocket.pdb
REMARK  136 active torsions:
REMARK  status: ('A' for Active; 'I' for Inactive)
REMARK    1  A    between atoms: _1  and  _3
REMARK    2  A    between atoms: _3  and  _4
REMARK    3  A    between atoms: _3  and  _6
REMARK    4  A    between atoms: _9  and  _11
REMARK    5  A    between atoms: _11  and  _12
REMARK    6  A    between atoms: _11  and  _14
REMARK    7  A    between atoms: _16  and  _18
REMARK    8  A    between atoms: _18  and  _19
REMARK    9  A    between atoms: _22  and  _24
REMARK   10  A    between atoms: _24  and  _25
REMARK   11  A    between atoms: _24  and  _27
REMARK   12  A    between atoms: _27  and  _28
REMARK   13  A    between atoms: _33  and  _35
REMARK   14  A    between atoms: _35  and  _36
REMARK   15  A    between atoms: _39  and  _41
REMARK   16  A    between atoms: _41  and  _42
REMARK   17  A    between atoms: _41  and  _44
REMARK   18  A    between atoms: _44  and  _45
REMARK   19  A    between atoms: _48  and  _50
REMARK   20  A    between atoms: _50  and  _51
REMARK   21  A    between atoms: _50  and  _53
REMARK   22  A    between atoms: _56  and  _58
REMARK   23  A    between atoms: _58  and  _59
REMARK   24  A    between atoms: _58  and  _61
REMARK   25  A    between atoms: _61  and  _62
REMARK   26  A    between atoms: _67  and  _68
REMARK   27  A    between atoms: _70  and  _72
REMARK   28  A    between atoms: _72  and  _73
REMARK   29  A    between atoms: _72  and  _75
REMARK   30  A    between atoms: _75  and  _76
REMARK   31  A    between atoms: _76  and  _77
REMARK   32  A    between atoms: _77  and  _78
REMARK   33  A    between atoms: _78  and  _79
REMARK   34  A    between atoms: _83  and  _85
REMARK   35  A    between atoms: _85  and  _86
REMARK   36  A    between atoms: _85  and  _88
REMARK   37  A    between atoms: _88  and  _89
REMARK   38  A    between atoms: _92  and  _94
REMARK   39  A    between atoms: _94  and  _95
REMARK   40  A    between atoms: _94  and  _97
REMARK   41  A    between atoms: _97  and  _98
REMARK   42  A    between atoms: _103  and  _104
REMARK   43  A    between atoms: _106  and  _108
REMARK   44  A    between atoms: _108  and  _109
REMARK   45  A    between atoms: _112  and  _114
REMARK   46  A    between atoms: _114  and  _115
REMARK   47  A    between atoms: _114  and  _117
REMARK   48  A    between atoms: _117  and  _118
REMARK   49  A    between atoms: _118  and  _119
REMARK   50  A    between atoms: _119  and  _120
REMARK   51  A    between atoms: _120  and  _121
REMARK   52  A    between atoms: _125  and  _127
REMARK   53  A    between atoms: _127  and  _128
REMARK   54  A    between atoms: _127  and  _130
REMARK   55  A    between atoms: _130  and  _131
REMARK   56  A    between atoms: _134  and  _136
REMARK   57  A    between atoms: _136  and  _137
REMARK   58  A    between atoms: _140  and  _142
REMARK   59  A    between atoms: _142  and  _143
REMARK   60  A    between atoms: _142  and  _145
REMARK   61  A    between atoms: _145  and  _146
REMARK   62  A    between atoms: _146  and  _260
REMARK   63  A    between atoms: _147  and  _149
REMARK   64  A    between atoms: _149  and  _150
REMARK   65  A    between atoms: _149  and  _152
REMARK   66  A    between atoms: _152  and  _153
REMARK   67  A    between atoms: _153  and  _154
REMARK   68  A    between atoms: _154  and  _155
REMARK   69  A    between atoms: _155  and  _156
REMARK   70  A    between atoms: _160  and  _162
REMARK   71  A    between atoms: _162  and  _163
REMARK   72  A    between atoms: _165  and  _167
REMARK   73  A    between atoms: _167  and  _168
REMARK   74  A    between atoms: _167  and  _170
REMARK   75  A    between atoms: _170  and  _171
REMARK   76  A    between atoms: _174  and  _176
REMARK   77  A    between atoms: _176  and  _177
REMARK   78  A    between atoms: _176  and  _179
REMARK   79  A    between atoms: _179  and  _180
REMARK   80  A    between atoms: _182  and  _184
REMARK   81  A    between atoms: _184  and  _185
REMARK   82  A    between atoms: _187  and  _189
REMARK   83  A    between atoms: _189  and  _190
REMARK   84  A    between atoms: _192  and  _194
REMARK   85  A    between atoms: _194  and  _195
REMARK   86  A    between atoms: _194  and  _197
REMARK   87  A    between atoms: _197  and  _198
REMARK   88  A    between atoms: _201  and  _203
REMARK   89  A    between atoms: _203  and  _204
REMARK   90  A    between atoms: _203  and  _206
REMARK   91  A    between atoms: _206  and  _207
REMARK   92  A    between atoms: _210  and  _212
REMARK   93  A    between atoms: _212  and  _213
REMARK   94  A    between atoms: _212  and  _215
REMARK   95  A    between atoms: _215  and  _216
REMARK   96  A    between atoms: _218  and  _220
REMARK   97  A    between atoms: _220  and  _221
REMARK   98  A    between atoms: _220  and  _223
REMARK   99  A    between atoms: _223  and  _224
REMARK  100  A    between atoms: _234  and  _236
REMARK  101  A    between atoms: _236  and  _237
REMARK  102  A    between atoms: _239  and  _241
REMARK  103  A    between atoms: _241  and  _242
REMARK  104  A    between atoms: _241  and  _244
REMARK  105  A    between atoms: _244  and  _245
REMARK  106  A    between atoms: _245  and  _246
REMARK  107  A    between atoms: _249  and  _251
REMARK  108  A    between atoms: _251  and  _252
REMARK  109  A    between atoms: _254  and  _256
REMARK  110  A    between atoms: _256  and  _257
REMARK  111  A    between atoms: _256  and  _259
REMARK  112  A    between atoms: _259  and  _260
REMARK  113  A    between atoms: _261  and  _263
REMARK  114  A    between atoms: _263  and  _264
REMARK  115  A    between atoms: _267  and  _269
REMARK  116  A    between atoms: _269  and  _270
REMARK  117  A    between atoms: _269  and  _272
REMARK  118  A    between atoms: _272  and  _273
REMARK  119  A    between atoms: _273  and  _274
REMARK  120  A    between atoms: _279  and  _281
REMARK  121  A    between atoms: _281  and  _282
REMARK  122  A    between atoms: _281  and  _284
REMARK  123  A    between atoms: _284  and  _285
REMARK  124  A    between atoms: _285  and  _286
REMARK  125  A    between atoms: _286  and  _287
REMARK  126  A    between atoms: _297  and  _298
REMARK  127  A    between atoms: _303  and  _305
REMARK  128  A    between atoms: _305  and  _306
REMARK  129  A    between atoms: _308  and  _310
REMARK  130  A    between atoms: _310  and  _311
REMARK  131  A    between atoms: _310  and  _313
REMARK  132  A    between atoms: _316  and  _318
REMARK  133  A    between atoms: _318  and  _319
REMARK  134  A    between atoms: _318  and  _321
REMARK  135  A    between atoms: _321  and  _322
REMARK  136  A    between atoms: _327  and  _328
REMARK                            x       y       z     vdW  Elec       q    Type
REMARK                         _______ _______ _______ _____ _____    ______ ____
ROOT
ATOM      1  O   HOH     1      58.569  20.087   8.767  0.00  0.00    +0.000 OA
ENDROOT
TORSDOF 0
REMARK  Name = ../refined-set-2016/4cr9/4cr9_pocket.pdb
REMARK  136 active torsions:
REMARK  status: ('A' for Active; 'I' for Inactive)
REMARK    1  A    between atoms: _1  and  _3
REMARK    2  A    between atoms: _3  and  _4
REMARK    3  A    between atoms: _3  and  _6
REMARK    4  A    between atoms: _9  and  _11
REMARK    5  A    between atoms: _11  and  _12
REMARK    6  A    between atoms: _11  and  _14
REMARK    7  A    between atoms: _16  and  _18
REMARK    8  A    between atoms: _18  and  _19
REMARK    9  A    between atoms: _22  and  _24
REMARK   10  A    between atoms: _24  and  _25
REMARK   11  A    between atoms: _24  and  _27
REMARK   12  A    between atoms: _27  and  _28
REMARK   13  A    between atoms: _33  and  _35
REMARK   14  A    between atoms: _35  and  _36
REMARK   15  A    between atoms: _39  and  _41
REMARK   16  A    between atoms: _41  and  _42
REMARK   17  A    between atoms: _41  and  _44
REMARK   18  A    between atoms: _44  and  _45
REMARK   19  A    between atoms: _48  and  _50
REMARK   20  A    between atoms: _50  and  _51
REMARK   21  A    between atoms: _50  and  _53
REMARK   22  A    between atoms: _56  and  _58
REMARK   23  A    between atoms: _58  and  _59
REMARK   24  A    between atoms: _58  and  _61
REMARK   25  A    between atoms: _61  and  _62
REMARK   26  A    between atoms: _67  and  _68
REMARK   27  A    between atoms: _70  and  _72
REMARK   28  A    between atoms: _72  and  _73
REMARK   29  A    between atoms: _72  and  _75
REMARK   30  A    between atoms: _75  and  _76
REMARK   31  A    between atoms: _76  and  _77
REMARK   32  A    between atoms: _77  and  _78
REMARK   33  A    between atoms: _78  and  _79
REMARK   34  A    between atoms: _83  and  _85
REMARK   35  A    between atoms: _85  and  _86
REMARK   36  A    between atoms: _85  and  _88
REMARK   37  A    between atoms: _88  and  _89
REMARK   38  A    between atoms: _92  and  _94
REMARK   39  A    between atoms: _94  and  _95
REMARK   40  A    between atoms: _94  and  _97
REMARK   41  A    between atoms: _97  and  _98
REMARK   42  A    between atoms: _103  and  _104
REMARK   43  A    between atoms: _106  and  _108
REMARK   44  A    between atoms: _108  and  _109
REMARK   45  A    between atoms: _112  and  _114
REMARK   46  A    between atoms: _114  and  _115
REMARK   47  A    between atoms: _114  and  _117
REMARK   48  A    between atoms: _117  and  _118
REMARK   49  A    between atoms: _118  and  _119
REMARK   50  A    between atoms: _119  and  _120
REMARK   51  A    between atoms: _120  and  _121
REMARK   52  A    between atoms: _125  and  _127
REMARK   53  A    between atoms: _127  and  _128
REMARK   54  A    between atoms: _127  and  _130
REMARK   55  A    between atoms: _130  and  _131
REMARK   56  A    between atoms: _134  and  _136
REMARK   57  A    between atoms: _136  and  _137
REMARK   58  A    between atoms: _140  and  _142
REMARK   59  A    between atoms: _142  and  _143
REMARK   60  A    between atoms: _142  and  _145
REMARK   61  A    between atoms: _145  and  _146
REMARK   62  A    between atoms: _146  and  _260
REMARK   63  A    between atoms: _147  and  _149
REMARK   64  A    between atoms: _149  and  _150
REMARK   65  A    between atoms: _149  and  _152
REMARK   66  A    between atoms: _152  and  _153
REMARK   67  A    between atoms: _153  and  _154
REMARK   68  A    between atoms: _154  and  _155
REMARK   69  A    between atoms: _155  and  _156
REMARK   70  A    between atoms: _160  and  _162
REMARK   71  A    between atoms: _162  and  _163
REMARK   72  A    between atoms: _165  and  _167
REMARK   73  A    between atoms: _167  and  _168
REMARK   74  A    between atoms: _167  and  _170
REMARK   75  A    between atoms: _170  and  _171
REMARK   76  A    between atoms: _174  and  _176
REMARK   77  A    between atoms: _176  and  _177
REMARK   78  A    between atoms: _176  and  _179
REMARK   79  A    between atoms: _179  and  _180
REMARK   80  A    between atoms: _182  and  _184
REMARK   81  A    between atoms: _184  and  _185
REMARK   82  A    between atoms: _187  and  _189
REMARK   83  A    between atoms: _189  and  _190
REMARK   84  A    between atoms: _192  and  _194
REMARK   85  A    between atoms: _194  and  _195
REMARK   86  A    between atoms: _194  and  _197
REMARK   87  A    between atoms: _197  and  _198
REMARK   88  A    between atoms: _201  and  _203
REMARK   89  A    between atoms: _203  and  _204
REMARK   90  A    between atoms: _203  and  _206
REMARK   91  A    between atoms: _206  and  _207
REMARK   92  A    between atoms: _210  and  _212
REMARK   93  A    between atoms: _212  and  _213
REMARK   94  A    between atoms: _212  and  _215
REMARK   95  A    between atoms: _215  and  _216
REMARK   96  A    between atoms: _218  and  _220
REMARK   97  A    between atoms: _220  and  _221
REMARK   98  A    between atoms: _220  and  _223
REMARK   99  A    between atoms: _223  and  _224
REMARK  100  A    between atoms: _234  and  _236
REMARK  101  A    between atoms: _236  and  _237
REMARK  102  A    between atoms: _239  and  _241
REMARK  103  A    between atoms: _241  and  _242
REMARK  104  A    between atoms: _241  and  _244
REMARK  105  A    between atoms: _244  and  _245
REMARK  106  A    between atoms: _245  and  _246
REMARK  107  A    between atoms: _249  and  _251
REMARK  108  A    between atoms: _251  and  _252
REMARK  109  A    between atoms: _254  and  _256
REMARK  110  A    between atoms: _256  and  _257
REMARK  111  A    between atoms: _256  and  _259
REMARK  112  A    between atoms: _259  and  _260
REMARK  113  A    between atoms: _261  and  _263
REMARK  114  A    between atoms: _263  and  _264
REMARK  115  A    between atoms: _267  and  _269
REMARK  116  A    between atoms: _269  and  _270
REMARK  117  A    between atoms: _269  and  _272
REMARK  118  A    between atoms: _272  and  _273
REMARK  119  A    between atoms: _273  and  _274
REMARK  120  A    between atoms: _279  and  _281
REMARK  121  A    between atoms: _281  and  _282
REMARK  122  A    between atoms: _281  and  _284
REMARK  123  A    between atoms: _284  and  _285
REMARK  124  A    between atoms: _285  and  _286
REMARK  125  A    between atoms: _286  and  _287
REMARK  126  A    between atoms: _297  and  _298
REMARK  127  A    between atoms: _303  and  _305
REMARK  128  A    between atoms: _305  and  _306
REMARK  129  A    between atoms: _308  and  _310
REMARK  130  A    between atoms: _310  and  _311
REMARK  131  A    between atoms: _310  and  _313
REMARK  132  A    between atoms: _316  and  _318
REMARK  133  A    between atoms: _318  and  _319
REMARK  134  A    between atoms: _318  and  _321
REMARK  135  A    between atoms: _321  and  _322
REMARK  136  A    between atoms: _327  and  _328
REMARK                            x       y       z     vdW  Elec       q    Type
REMARK                         _______ _______ _______ _____ _____    ______ ____
ROOT
ATOM      1  O   HOH     1      42.819  17.557  10.028  0.00  0.00    +0.000 OA
ENDROOT
TORSDOF 0
REMARK  Name = ../refined-set-2016/4cr9/4cr9_pocket.pdb
REMARK  136 active torsions:
REMARK  status: ('A' for Active; 'I' for Inactive)
REMARK    1  A    between atoms: _1  and  _3
REMARK    2  A    between atoms: _3  and  _4
REMARK    3  A    between atoms: _3  and  _6
REMARK    4  A    between atoms: _9  and  _11
REMARK    5  A    between atoms: _11  and  _12
REMARK    6  A    between atoms: _11  and  _14
REMARK    7  A    between atoms: _16  and  _18
REMARK    8  A    between atoms: _18  and  _19
REMARK    9  A    between atoms: _22  and  _24
REMARK   10  A    between atoms: _24  and  _25
REMARK   11  A    between atoms: _24  and  _27
REMARK   12  A    between atoms: _27  and  _28
REMARK   13  A    between atoms: _33  and  _35
REMARK   14  A    between atoms: _35  and  _36
REMARK   15  A    between atoms: _39  and  _41
REMARK   16  A    between atoms: _41  and  _42
REMARK   17  A    between atoms: _41  and  _44
REMARK   18  A    between atoms: _44  and  _45
REMARK   19  A    between atoms: _48  and  _50
REMARK   20  A    between atoms: _50  and  _51
REMARK   21  A    between atoms: _50  and  _53
REMARK   22  A    between atoms: _56  and  _58
REMARK   23  A    between atoms: _58  and  _59
REMARK   24  A    between atoms: _58  and  _61
REMARK   25  A    between atoms: _61  and  _62
REMARK   26  A    between atoms: _67  and  _68
REMARK   27  A    between atoms: _70  and  _72
REMARK   28  A    between atoms: _72  and  _73
REMARK   29  A    between atoms: _72  and  _75
REMARK   30  A    between atoms: _75  and  _76
REMARK   31  A    between atoms: _76  and  _77
REMARK   32  A    between atoms: _77  and  _78
REMARK   33  A    between atoms: _78  and  _79
REMARK   34  A    between atoms: _83  and  _85
REMARK   35  A    between atoms: _85  and  _86
REMARK   36  A    between atoms: _85  and  _88
REMARK   37  A    between atoms: _88  and  _89
REMARK   38  A    between atoms: _92  and  _94
REMARK   39  A    between atoms: _94  and  _95
REMARK   40  A    between atoms: _94  and  _97
REMARK   41  A    between atoms: _97  and  _98
REMARK   42  A    between atoms: _103  and  _104
REMARK   43  A    between atoms: _106  and  _108
REMARK   44  A    between atoms: _108  and  _109
REMARK   45  A    between atoms: _112  and  _114
REMARK   46  A    between atoms: _114  and  _115
REMARK   47  A    between atoms: _114  and  _117
REMARK   48  A    between atoms: _117  and  _118
REMARK   49  A    between atoms: _118  and  _119
REMARK   50  A    between atoms: _119  and  _120
REMARK   51  A    between atoms: _120  and  _121
REMARK   52  A    between atoms: _125  and  _127
REMARK   53  A    between atoms: _127  and  _128
REMARK   54  A    between atoms: _127  and  _130
REMARK   55  A    between atoms: _130  and  _131
REMARK   56  A    between atoms: _134  and  _136
REMARK   57  A    between atoms: _136  and  _137
REMARK   58  A    between atoms: _140  and  _142
REMARK   59  A    between atoms: _142  and  _143
REMARK   60  A    between atoms: _142  and  _145
REMARK   61  A    between atoms: _145  and  _146
REMARK   62  A    between atoms: _146  and  _260
REMARK   63  A    between atoms: _147  and  _149
REMARK   64  A    between atoms: _149  and  _150
REMARK   65  A    between atoms: _149  and  _152
REMARK   66  A    between atoms: _152  and  _153
REMARK   67  A    between atoms: _153  and  _154
REMARK   68  A    between atoms: _154  and  _155
REMARK   69  A    between atoms: _155  and  _156
REMARK   70  A    between atoms: _160  and  _162
REMARK   71  A    between atoms: _162  and  _163
REMARK   72  A    between atoms: _165  and  _167
REMARK   73  A    between atoms: _167  and  _168
REMARK   74  A    between atoms: _167  and  _170
REMARK   75  A    between atoms: _170  and  _171
REMARK   76  A    between atoms: _174  and  _176
REMARK   77  A    between atoms: _176  and  _177
REMARK   78  A    between atoms: _176  and  _179
REMARK   79  A    between atoms: _179  and  _180
REMARK   80  A    between atoms: _182  and  _184
REMARK   81  A    between atoms: _184  and  _185
REMARK   82  A    between atoms: _187  and  _189
REMARK   83  A    between atoms: _189  and  _190
REMARK   84  A    between atoms: _192  and  _194
REMARK   85  A    between atoms: _194  and  _195
REMARK   86  A    between atoms: _194  and  _197
REMARK   87  A    between atoms: _197  and  _198
REMARK   88  A    between atoms: _201  and  _203
REMARK   89  A    between atoms: _203  and  _204
REMARK   90  A    between atoms: _203  and  _206
REMARK   91  A    between atoms: _206  and  _207
REMARK   92  A    between atoms: _210  and  _212
REMARK   93  A    between atoms: _212  and  _213
REMARK   94  A    between atoms: _212  and  _215
REMARK   95  A    between atoms: _215  and  _216
REMARK   96  A    between atoms: _218  and  _220
REMARK   97  A    between atoms: _220  and  _221
REMARK   98  A    between atoms: _220  and  _223
REMARK   99  A    between atoms: _223  and  _224
REMARK  100  A    between atoms: _234  and  _236
REMARK  101  A    between atoms: _236  and  _237
REMARK  102  A    between atoms: _239  and  _241
REMARK  103  A    between atoms: _241  and  _242
REMARK  104  A    between atoms: _241  and  _244
REMARK  105  A    between atoms: _244  and  _245
REMARK  106  A    between atoms: _245  and  _246
REMARK  107  A    between atoms: _249  and  _251
REMARK  108  A    between atoms: _251  and  _252
REMARK  109  A    between atoms: _254  and  _256
REMARK  110  A    between atoms: _256  and  _257
REMARK  111  A    between atoms: _256  and  _259
REMARK  112  A    between atoms: _259  and  _260
REMARK  113  A    between atoms: _261  and  _263
REMARK  114  A    between atoms: _263  and  _264
REMARK  115  A    between atoms: _267  and  _269
REMARK  116  A    between atoms: _269  and  _270
REMARK  117  A    between atoms: _269  and  _272
REMARK  118  A    between atoms: _272  and  _273
REMARK  119  A    between atoms: _273  and  _274
REMARK  120  A    between atoms: _279  and  _281
REMARK  121  A    between atoms: _281  and  _282
REMARK  122  A    between atoms: _281  and  _284
REMARK  123  A    between atoms: _284  and  _285
REMARK  124  A    between atoms: _285  and  _286
REMARK  125  A    between atoms: _286  and  _287
REMARK  126  A    between atoms: _297  and  _298
REMARK  127  A    between atoms: _303  and  _305
REMARK  128  A    between atoms: _305  and  _306
REMARK  129  A    between atoms: _308  and  _310
REMARK  130  A    between atoms: _310  and  _311
REMARK  131  A    between atoms: _310  and  _313
REMARK  132  A    between atoms: _316  and  _318
REMARK  133  A    between atoms: _318  and  _319
REMARK  134  A    between atoms: _318  and  _321
REMARK  135  A    between atoms: _321  and  _322
REMARK  136  A    between atoms: _327  and  _328
REMARK                            x       y       z     vdW  Elec       q    Type
REMARK                         _______ _______ _______ _____ _____    ______ ____
ROOT
ATOM      1  O   HOH     1      47.613  15.276  12.442  0.00  0.00    +0.000 OA
ENDROOT
TORSDOF 0
REMARK  Name = ../refined-set-2016/4cr9/4cr9_pocket.pdb
REMARK  136 active torsions:
REMARK  status: ('A' for Active; 'I' for Inactive)
REMARK    1  A    between atoms: _1  and  _3
REMARK    2  A    between atoms: _3  and  _4
REMARK    3  A    between atoms: _3  and  _6
REMARK    4  A    between atoms: _9  and  _11
REMARK    5  A    between atoms: _11  and  _12
REMARK    6  A    between atoms: _11  and  _14
REMARK    7  A    between atoms: _16  and  _18
REMARK    8  A    between atoms: _18  and  _19
REMARK    9  A    between atoms: _22  and  _24
REMARK   10  A    between atoms: _24  and  _25
REMARK   11  A    between atoms: _24  and  _27
REMARK   12  A    between atoms: _27  and  _28
REMARK   13  A    between atoms: _33  and  _35
REMARK   14  A    between atoms: _35  and  _36
REMARK   15  A    between atoms: _39  and  _41
REMARK   16  A    between atoms: _41  and  _42
REMARK   17  A    between atoms: _41  and  _44
REMARK   18  A    between atoms: _44  and  _45
REMARK   19  A    between atoms: _48  and  _50
REMARK   20  A    between atoms: _50  and  _51
REMARK   21  A    between atoms: _50  and  _53
REMARK   22  A    between atoms: _56  and  _58
REMARK   23  A    between atoms: _58  and  _59
REMARK   24  A    between atoms: _58  and  _61
REMARK   25  A    between atoms: _61  and  _62
REMARK   26  A    between atoms: _67  and  _68
REMARK   27  A    between atoms: _70  and  _72
REMARK   28  A    between atoms: _72  and  _73
REMARK   29  A    between atoms: _72  and  _75
REMARK   30  A    between atoms: _75  and  _76
REMARK   31  A    between atoms: _76  and  _77
REMARK   32  A    between atoms: _77  and  _78
REMARK   33  A    between atoms: _78  and  _79
REMARK   34  A    between atoms: _83  and  _85
REMARK   35  A    between atoms: _85  and  _86
REMARK   36  A    between atoms: _85  and  _88
REMARK   37  A    between atoms: _88  and  _89
REMARK   38  A    between atoms: _92  and  _94
REMARK   39  A    between atoms: _94  and  _95
REMARK   40  A    between atoms: _94  and  _97
REMARK   41  A    between atoms: _97  and  _98
REMARK   42  A    between atoms: _103  and  _104
REMARK   43  A    between atoms: _106  and  _108
REMARK   44  A    between atoms: _108  and  _109
REMARK   45  A    between atoms: _112  and  _114
REMARK   46  A    between atoms: _114  and  _115
REMARK   47  A    between atoms: _114  and  _117
REMARK   48  A    between atoms: _117  and  _118
REMARK   49  A    between atoms: _118  and  _119
REMARK   50  A    between atoms: _119  and  _120
REMARK   51  A    between atoms: _120  and  _121
REMARK   52  A    between atoms: _125  and  _127
REMARK   53  A    between atoms: _127  and  _128
REMARK   54  A    between atoms: _127  and  _130
REMARK   55  A    between atoms: _130  and  _131
REMARK   56  A    between atoms: _134  and  _136
REMARK   57  A    between atoms: _136  and  _137
REMARK   58  A    between atoms: _140  and  _142
REMARK   59  A    between atoms: _142  and  _143
REMARK   60  A    between atoms: _142  and  _145
REMARK   61  A    between atoms: _145  and  _146
REMARK   62  A    between atoms: _146  and  _260
REMARK   63  A    between atoms: _147  and  _149
REMARK   64  A    between atoms: _149  and  _150
REMARK   65  A    between atoms: _149  and  _152
REMARK   66  A    between atoms: _152  and  _153
REMARK   67  A    between atoms: _153  and  _154
REMARK   68  A    between atoms: _154  and  _155
REMARK   69  A    between atoms: _155  and  _156
REMARK   70  A    between atoms: _160  and  _162
REMARK   71  A    between atoms: _162  and  _163
REMARK   72  A    between atoms: _165  and  _167
REMARK   73  A    between atoms: _167  and  _168
REMARK   74  A    between atoms: _167  and  _170
REMARK   75  A    between atoms: _170  and  _171
REMARK   76  A    between atoms: _174  and  _176
REMARK   77  A    between atoms: _176  and  _177
REMARK   78  A    between atoms: _176  and  _179
REMARK   79  A    between atoms: _179  and  _180
REMARK   80  A    between atoms: _182  and  _184
REMARK   81  A    between atoms: _184  and  _185
REMARK   82  A    between atoms: _187  and  _189
REMARK   83  A    between atoms: _189  and  _190
REMARK   84  A    between atoms: _192  and  _194
REMARK   85  A    between atoms: _194  and  _195
REMARK   86  A    between atoms: _194  and  _197
REMARK   87  A    between atoms: _197  and  _198
REMARK   88  A    between atoms: _201  and  _203
REMARK   89  A    between atoms: _203  and  _204
REMARK   90  A    between atoms: _203  and  _206
REMARK   91  A    between atoms: _206  and  _207
REMARK   92  A    between atoms: _210  and  _212
REMARK   93  A    between atoms: _212  and  _213
REMARK   94  A    between atoms: _212  and  _215
REMARK   95  A    between atoms: _215  and  _216
REMARK   96  A    between atoms: _218  and  _220
REMARK   97  A    between atoms: _220  and  _221
REMARK   98  A    between atoms: _220  and  _223
REMARK   99  A    between atoms: _223  and  _224
REMARK  100  A    between atoms: _234  and  _236
REMARK  101  A    between atoms: _236  and  _237
REMARK  102  A    between atoms: _239  and  _241
REMARK  103  A    between atoms: _241  and  _242
REMARK  104  A    between atoms: _241  and  _244
REMARK  105  A    between atoms: _244  and  _245
REMARK  106  A    between atoms: _245  and  _246
REMARK  107  A    between atoms: _249  and  _251
REMARK  108  A    between atoms: _251  and  _252
REMARK  109  A    between atoms: _254  and  _256
REMARK  110  A    between atoms: _256  and  _257
REMARK  111  A    between atoms: _256  and  _259
REMARK  112  A    between atoms: _259  and  _260
REMARK  113  A    between atoms: _261  and  _263
REMARK  114  A    between atoms: _263  and  _264
REMARK  115  A    between atoms: _267  and  _269
REMARK  116  A    between atoms: _269  and  _270
REMARK  117  A    between atoms: _269  and  _272
REMARK  118  A    between atoms: _272  and  _273
REMARK  119  A    between atoms: _273  and  _274
REMARK  120  A    between atoms: _279  and  _281
REMARK  121  A    between atoms: _281  and  _282
REMARK  122  A    between atoms: _281  and  _284
REMARK  123  A    between atoms: _284  and  _285
REMARK  124  A    between atoms: _285  and  _286
REMARK  125  A    between atoms: _286  and  _287
REMARK  126  A    between atoms: _297  and  _298
REMARK  127  A    between atoms: _303  and  _305
REMARK  128  A    between atoms: _305  and  _306
REMARK  129  A    between atoms: _308  and  _310
REMARK  130  A    between atoms: _310  and  _311
REMARK  131  A    between atoms: _310  and  _313
REMARK  132  A    between atoms: _316  and  _318
REMARK  133  A    between atoms: _318  and  _319
REMARK  134  A    between atoms: _318  and  _321
REMARK  135  A    between atoms: _321  and  _322
REMARK  136  A    between atoms: _327  and  _328
REMARK                            x       y       z     vdW  Elec       q    Type
REMARK                         _______ _______ _______ _____ _____    ______ ____
ROOT
ATOM      1  O   HOH     1      58.629  27.523  11.558  0.00  0.00    +0.000 OA
ENDROOT
TORSDOF 0
REMARK  Name = ../refined-set-2016/4cr9/4cr9_pocket.pdb
REMARK  136 active torsions:
REMARK  status: ('A' for Active; 'I' for Inactive)
REMARK    1  A    between atoms: _1  and  _3
REMARK    2  A    between atoms: _3  and  _4
REMARK    3  A    between atoms: _3  and  _6
REMARK    4  A    between atoms: _9  and  _11
REMARK    5  A    between atoms: _11  and  _12
REMARK    6  A    between atoms: _11  and  _14
REMARK    7  A    between atoms: _16  and  _18
REMARK    8  A    between atoms: _18  and  _19
REMARK    9  A    between atoms: _22  and  _24
REMARK   10  A    between atoms: _24  and  _25
REMARK   11  A    between atoms: _24  and  _27
REMARK   12  A    between atoms: _27  and  _28
REMARK   13  A    between atoms: _33  and  _35
REMARK   14  A    between atoms: _35  and  _36
REMARK   15  A    between atoms: _39  and  _41
REMARK   16  A    between atoms: _41  and  _42
REMARK   17  A    between atoms: _41  and  _44
REMARK   18  A    between atoms: _44  and  _45
REMARK   19  A    between atoms: _48  and  _50
REMARK   20  A    between atoms: _50  and  _51
REMARK   21  A    between atoms: _50  and  _53
REMARK   22  A    between atoms: _56  and  _58
REMARK   23  A    between atoms: _58  and  _59
REMARK   24  A    between atoms: _58  and  _61
REMARK   25  A    between atoms: _61  and  _62
REMARK   26  A    between atoms: _67  and  _68
REMARK   27  A    between atoms: _70  and  _72
REMARK   28  A    between atoms: _72  and  _73
REMARK   29  A    between atoms: _72  and  _75
REMARK   30  A    between atoms: _75  and  _76
REMARK   31  A    between atoms: _76  and  _77
REMARK   32  A    between atoms: _77  and  _78
REMARK   33  A    between atoms: _78  and  _79
REMARK   34  A    between atoms: _83  and  _85
REMARK   35  A    between atoms: _85  and  _86
REMARK   36  A    between atoms: _85  and  _88
REMARK   37  A    between atoms: _88  and  _89
REMARK   38  A    between atoms: _92  and  _94
REMARK   39  A    between atoms: _94  and  _95
REMARK   40  A    between atoms: _94  and  _97
REMARK   41  A    between atoms: _97  and  _98
REMARK   42  A    between atoms: _103  and  _104
REMARK   43  A    between atoms: _106  and  _108
REMARK   44  A    between atoms: _108  and  _109
REMARK   45  A    between atoms: _112  and  _114
REMARK   46  A    between atoms: _114  and  _115
REMARK   47  A    between atoms: _114  and  _117
REMARK   48  A    between atoms: _117  and  _118
REMARK   49  A    between atoms: _118  and  _119
REMARK   50  A    between atoms: _119  and  _120
REMARK   51  A    between atoms: _120  and  _121
REMARK   52  A    between atoms: _125  and  _127
REMARK   53  A    between atoms: _127  and  _128
REMARK   54  A    between atoms: _127  and  _130
REMARK   55  A    between atoms: _130  and  _131
REMARK   56  A    between atoms: _134  and  _136
REMARK   57  A    between atoms: _136  and  _137
REMARK   58  A    between atoms: _140  and  _142
REMARK   59  A    between atoms: _142  and  _143
REMARK   60  A    between atoms: _142  and  _145
REMARK   61  A    between atoms: _145  and  _146
REMARK   62  A    between atoms: _146  and  _260
REMARK   63  A    between atoms: _147  and  _149
REMARK   64  A    between atoms: _149  and  _150
REMARK   65  A    between atoms: _149  and  _152
REMARK   66  A    between atoms: _152  and  _153
REMARK   67  A    between atoms: _153  and  _154
REMARK   68  A    between atoms: _154  and  _155
REMARK   69  A    between atoms: _155  and  _156
REMARK   70  A    between atoms: _160  and  _162
REMARK   71  A    between atoms: _162  and  _163
REMARK   72  A    between atoms: _165  and  _167
REMARK   73  A    between atoms: _167  and  _168
REMARK   74  A    between atoms: _167  and  _170
REMARK   75  A    between atoms: _170  and  _171
REMARK   76  A    between atoms: _174  and  _176
REMARK   77  A    between atoms: _176  and  _177
REMARK   78  A    between atoms: _176  and  _179
REMARK   79  A    between atoms: _179  and  _180
REMARK   80  A    between atoms: _182  and  _184
REMARK   81  A    between atoms: _184  and  _185
REMARK   82  A    between atoms: _187  and  _189
REMARK   83  A    between atoms: _189  and  _190
REMARK   84  A    between atoms: _192  and  _194
REMARK   85  A    between atoms: _194  and  _195
REMARK   86  A    between atoms: _194  and  _197
REMARK   87  A    between atoms: _197  and  _198
REMARK   88  A    between atoms: _201  and  _203
REMARK   89  A    between atoms: _203  and  _204
REMARK   90  A    between atoms: _203  and  _206
REMARK   91  A    between atoms: _206  and  _207
REMARK   92  A    between atoms: _210  and  _212
REMARK   93  A    between atoms: _212  and  _213
REMARK   94  A    between atoms: _212  and  _215
REMARK   95  A    between atoms: _215  and  _216
REMARK   96  A    between atoms: _218  and  _220
REMARK   97  A    between atoms: _220  and  _221
REMARK   98  A    between atoms: _220  and  _223
REMARK   99  A    between atoms: _223  and  _224
REMARK  100  A    between atoms: _234  and  _236
REMARK  101  A    between atoms: _236  and  _237
REMARK  102  A    between atoms: _239  and  _241
REMARK  103  A    between atoms: _241  and  _242
REMARK  104  A    between atoms: _241  and  _244
REMARK  105  A    between atoms: _244  and  _245
REMARK  106  A    between atoms: _245  and  _246
REMARK  107  A    between atoms: _249  and  _251
REMARK  108  A    between atoms: _251  and  _252
REMARK  109  A    between atoms: _254  and  _256
REMARK  110  A    between atoms: _256  and  _257
REMARK  111  A    between atoms: _256  and  _259
REMARK  112  A    between atoms: _259  and  _260
REMARK  113  A    between atoms: _261  and  _263
REMARK  114  A    between atoms: _263  and  _264
REMARK  115  A    between atoms: _267  and  _269
REMARK  116  A    between atoms: _269  and  _270
REMARK  117  A    between atoms: _269  and  _272
REMARK  118  A    between atoms: _272  and  _273
REMARK  119  A    between atoms: _273  and  _274
REMARK  120  A    between atoms: _279  and  _281
REMARK  121  A    between atoms: _281  and  _282
REMARK  122  A    between atoms: _281  and  _284
REMARK  123  A    between atoms: _284  and  _285
REMARK  124  A    between atoms: _285  and  _286
REMARK  125  A    between atoms: _286  and  _287
REMARK  126  A    between atoms: _297  and  _298
REMARK  127  A    between atoms: _303  and  _305
REMARK  128  A    between atoms: _305  and  _306
REMARK  129  A    between atoms: _308  and  _310
REMARK  130  A    between atoms: _310  and  _311
REMARK  131  A    between atoms: _310  and  _313
REMARK  132  A    between atoms: _316  and  _318
REMARK  133  A    between atoms: _318  and  _319
REMARK  134  A    between atoms: _318  and  _321
REMARK  135  A    between atoms: _321  and  _322
REMARK  136  A    between atoms: _327  and  _328
REMARK                            x       y       z     vdW  Elec       q    Type
REMARK                         _______ _______ _______ _____ _____    ______ ____
ROOT
ATOM      1  O   HOH     1      57.089  25.972  13.697  0.00  0.00    +0.000 OA
ENDROOT
TORSDOF 0
REMARK  Name = ../refined-set-2016/4cr9/4cr9_pocket.pdb
REMARK  136 active torsions:
REMARK  status: ('A' for Active; 'I' for Inactive)
REMARK    1  A    between atoms: _1  and  _3
REMARK    2  A    between atoms: _3  and  _4
REMARK    3  A    between atoms: _3  and  _6
REMARK    4  A    between atoms: _9  and  _11
REMARK    5  A    between atoms: _11  and  _12
REMARK    6  A    between atoms: _11  and  _14
REMARK    7  A    between atoms: _16  and  _18
REMARK    8  A    between atoms: _18  and  _19
REMARK    9  A    between atoms: _22  and  _24
REMARK   10  A    between atoms: _24  and  _25
REMARK   11  A    between atoms: _24  and  _27
REMARK   12  A    between atoms: _27  and  _28
REMARK   13  A    between atoms: _33  and  _35
REMARK   14  A    between atoms: _35  and  _36
REMARK   15  A    between atoms: _39  and  _41
REMARK   16  A    between atoms: _41  and  _42
REMARK   17  A    between atoms: _41  and  _44
REMARK   18  A    between atoms: _44  and  _45
REMARK   19  A    between atoms: _48  and  _50
REMARK   20  A    between atoms: _50  and  _51
REMARK   21  A    between atoms: _50  and  _53
REMARK   22  A    between atoms: _56  and  _58
REMARK   23  A    between atoms: _58  and  _59
REMARK   24  A    between atoms: _58  and  _61
REMARK   25  A    between atoms: _61  and  _62
REMARK   26  A    between atoms: _67  and  _68
REMARK   27  A    between atoms: _70  and  _72
REMARK   28  A    between atoms: _72  and  _73
REMARK   29  A    between atoms: _72  and  _75
REMARK   30  A    between atoms: _75  and  _76
REMARK   31  A    between atoms: _76  and  _77
REMARK   32  A    between atoms: _77  and  _78
REMARK   33  A    between atoms: _78  and  _79
REMARK   34  A    between atoms: _83  and  _85
REMARK   35  A    between atoms: _85  and  _86
REMARK   36  A    between atoms: _85  and  _88
REMARK   37  A    between atoms: _88  and  _89
REMARK   38  A    between atoms: _92  and  _94
REMARK   39  A    between atoms: _94  and  _95
REMARK   40  A    between atoms: _94  and  _97
REMARK   41  A    between atoms: _97  and  _98
REMARK   42  A    between atoms: _103  and  _104
REMARK   43  A    between atoms: _106  and  _108
REMARK   44  A    between atoms: _108  and  _109
REMARK   45  A    between atoms: _112  and  _114
REMARK   46  A    between atoms: _114  and  _115
REMARK   47  A    between atoms: _114  and  _117
REMARK   48  A    between atoms: _117  and  _118
REMARK   49  A    between atoms: _118  and  _119
REMARK   50  A    between atoms: _119  and  _120
REMARK   51  A    between atoms: _120  and  _121
REMARK   52  A    between atoms: _125  and  _127
REMARK   53  A    between atoms: _127  and  _128
REMARK   54  A    between atoms: _127  and  _130
REMARK   55  A    between atoms: _130  and  _131
REMARK   56  A    between atoms: _134  and  _136
REMARK   57  A    between atoms: _136  and  _137
REMARK   58  A    between atoms: _140  and  _142
REMARK   59  A    between atoms: _142  and  _143
REMARK   60  A    between atoms: _142  and  _145
REMARK   61  A    between atoms: _145  and  _146
REMARK   62  A    between atoms: _146  and  _260
REMARK   63  A    between atoms: _147  and  _149
REMARK   64  A    between atoms: _149  and  _150
REMARK   65  A    between atoms: _149  and  _152
REMARK   66  A    between atoms: _152  and  _153
REMARK   67  A    between atoms: _153  and  _154
REMARK   68  A    between atoms: _154  and  _155
REMARK   69  A    between atoms: _155  and  _156
REMARK   70  A    between atoms: _160  and  _162
REMARK   71  A    between atoms: _162  and  _163
REMARK   72  A    between atoms: _165  and  _167
REMARK   73  A    between atoms: _167  and  _168
REMARK   74  A    between atoms: _167  and  _170
REMARK   75  A    between atoms: _170  and  _171
REMARK   76  A    between atoms: _174  and  _176
REMARK   77  A    between atoms: _176  and  _177
REMARK   78  A    between atoms: _176  and  _179
REMARK   79  A    between atoms: _179  and  _180
REMARK   80  A    between atoms: _182  and  _184
REMARK   81  A    between atoms: _184  and  _185
REMARK   82  A    between atoms: _187  and  _189
REMARK   83  A    between atoms: _189  and  _190
REMARK   84  A    between atoms: _192  and  _194
REMARK   85  A    between atoms: _194  and  _195
REMARK   86  A    between atoms: _194  and  _197
REMARK   87  A    between atoms: _197  and  _198
REMARK   88  A    between atoms: _201  and  _203
REMARK   89  A    between atoms: _203  and  _204
REMARK   90  A    between atoms: _203  and  _206
REMARK   91  A    between atoms: _206  and  _207
REMARK   92  A    between atoms: _210  and  _212
REMARK   93  A    between atoms: _212  and  _213
REMARK   94  A    between atoms: _212  and  _215
REMARK   95  A    between atoms: _215  and  _216
REMARK   96  A    between atoms: _218  and  _220
REMARK   97  A    between atoms: _220  and  _221
REMARK   98  A    between atoms: _220  and  _223
REMARK   99  A    between atoms: _223  and  _224
REMARK  100  A    between atoms: _234  and  _236
REMARK  101  A    between atoms: _236  and  _237
REMARK  102  A    between atoms: _239  and  _241
REMARK  103  A    between atoms: _241  and  _242
REMARK  104  A    between atoms: _241  and  _244
REMARK  105  A    between atoms: _244  and  _245
REMARK  106  A    between atoms: _245  and  _246
REMARK  107  A    between atoms: _249  and  _251
REMARK  108  A    between atoms: _251  and  _252
REMARK  109  A    between atoms: _254  and  _256
REMARK  110  A    between atoms: _256  and  _257
REMARK  111  A    between atoms: _256  and  _259
REMARK  112  A    between atoms: _259  and  _260
REMARK  113  A    between atoms: _261  and  _263
REMARK  114  A    between atoms: _263  and  _264
REMARK  115  A    between atoms: _267  and  _269
REMARK  116  A    between atoms: _269  and  _270
REMARK  117  A    between atoms: _269  and  _272
REMARK  118  A    between atoms: _272  and  _273
REMARK  119  A    between atoms: _273  and  _274
REMARK  120  A    between atoms: _279  and  _281
REMARK  121  A    between atoms: _281  and  _282
REMARK  122  A    between atoms: _281  and  _284
REMARK  123  A    between atoms: _284  and  _285
REMARK  124  A    between atoms: _285  and  _286
REMARK  125  A    between atoms: _286  and  _287
REMARK  126  A    between atoms: _297  and  _298
REMARK  127  A    between atoms: _303  and  _305
REMARK  128  A    between atoms: _305  and  _306
REMARK  129  A    between atoms: _308  and  _310
REMARK  130  A    between atoms: _310  and  _311
REMARK  131  A    between atoms: _310  and  _313
REMARK  132  A    between atoms: _316  and  _318
REMARK  133  A    between atoms: _318  and  _319
REMARK  134  A    between atoms: _318  and  _321
REMARK  135  A    between atoms: _321  and  _322
REMARK  136  A    between atoms: _327  and  _328
REMARK                            x       y       z     vdW  Elec       q    Type
REMARK                         _______ _______ _______ _____ _____    ______ ____
ROOT
ATOM      1  O   HOH     1      51.568  23.369  15.575  0.00  0.00    +0.000 OA
ENDROOT
TORSDOF 0
REMARK  Name = ../refined-set-2016/4cr9/4cr9_pocket.pdb
REMARK  136 active torsions:
REMARK  status: ('A' for Active; 'I' for Inactive)
REMARK    1  A    between atoms: _1  and  _3
REMARK    2  A    between atoms: _3  and  _4
REMARK    3  A    between atoms: _3  and  _6
REMARK    4  A    between atoms: _9  and  _11
REMARK    5  A    between atoms: _11  and  _12
REMARK    6  A    between atoms: _11  and  _14
REMARK    7  A    between atoms: _16  and  _18
REMARK    8  A    between atoms: _18  and  _19
REMARK    9  A    between atoms: _22  and  _24
REMARK   10  A    between atoms: _24  and  _25
REMARK   11  A    between atoms: _24  and  _27
REMARK   12  A    between atoms: _27  and  _28
REMARK   13  A    between atoms: _33  and  _35
REMARK   14  A    between atoms: _35  and  _36
REMARK   15  A    between atoms: _39  and  _41
REMARK   16  A    between atoms: _41  and  _42
REMARK   17  A    between atoms: _41  and  _44
REMARK   18  A    between atoms: _44  and  _45
REMARK   19  A    between atoms: _48  and  _50
REMARK   20  A    between atoms: _50  and  _51
REMARK   21  A    between atoms: _50  and  _53
REMARK   22  A    between atoms: _56  and  _58
REMARK   23  A    between atoms: _58  and  _59
REMARK   24  A    between atoms: _58  and  _61
REMARK   25  A    between atoms: _61  and  _62
REMARK   26  A    between atoms: _67  and  _68
REMARK   27  A    between atoms: _70  and  _72
REMARK   28  A    between atoms: _72  and  _73
REMARK   29  A    between atoms: _72  and  _75
REMARK   30  A    between atoms: _75  and  _76
REMARK   31  A    between atoms: _76  and  _77
REMARK   32  A    between atoms: _77  and  _78
REMARK   33  A    between atoms: _78  and  _79
REMARK   34  A    between atoms: _83  and  _85
REMARK   35  A    between atoms: _85  and  _86
REMARK   36  A    between atoms: _85  and  _88
REMARK   37  A    between atoms: _88  and  _89
REMARK   38  A    between atoms: _92  and  _94
REMARK   39  A    between atoms: _94  and  _95
REMARK   40  A    between atoms: _94  and  _97
REMARK   41  A    between atoms: _97  and  _98
REMARK   42  A    between atoms: _103  and  _104
REMARK   43  A    between atoms: _106  and  _108
REMARK   44  A    between atoms: _108  and  _109
REMARK   45  A    between atoms: _112  and  _114
REMARK   46  A    between atoms: _114  and  _115
REMARK   47  A    between atoms: _114  and  _117
REMARK   48  A    between atoms: _117  and  _118
REMARK   49  A    between atoms: _118  and  _119
REMARK   50  A    between atoms: _119  and  _120
REMARK   51  A    between atoms: _120  and  _121
REMARK   52  A    between atoms: _125  and  _127
REMARK   53  A    between atoms: _127  and  _128
REMARK   54  A    between atoms: _127  and  _130
REMARK   55  A    between atoms: _130  and  _131
REMARK   56  A    between atoms: _134  and  _136
REMARK   57  A    between atoms: _136  and  _137
REMARK   58  A    between atoms: _140  and  _142
REMARK   59  A    between atoms: _142  and  _143
REMARK   60  A    between atoms: _142  and  _145
REMARK   61  A    between atoms: _145  and  _146
REMARK   62  A    between atoms: _146  and  _260
REMARK   63  A    between atoms: _147  and  _149
REMARK   64  A    between atoms: _149  and  _150
REMARK   65  A    between atoms: _149  and  _152
REMARK   66  A    between atoms: _152  and  _153
REMARK   67  A    between atoms: _153  and  _154
REMARK   68  A    between atoms: _154  and  _155
REMARK   69  A    between atoms: _155  and  _156
REMARK   70  A    between atoms: _160  and  _162
REMARK   71  A    between atoms: _162  and  _163
REMARK   72  A    between atoms: _165  and  _167
REMARK   73  A    between atoms: _167  and  _168
REMARK   74  A    between atoms: _167  and  _170
REMARK   75  A    between atoms: _170  and  _171
REMARK   76  A    between atoms: _174  and  _176
REMARK   77  A    between atoms: _176  and  _177
REMARK   78  A    between atoms: _176  and  _179
REMARK   79  A    between atoms: _179  and  _180
REMARK   80  A    between atoms: _182  and  _184
REMARK   81  A    between atoms: _184  and  _185
REMARK   82  A    between atoms: _187  and  _189
REMARK   83  A    between atoms: _189  and  _190
REMARK   84  A    between atoms: _192  and  _194
REMARK   85  A    between atoms: _194  and  _195
REMARK   86  A    between atoms: _194  and  _197
REMARK   87  A    between atoms: _197  and  _198
REMARK   88  A    between atoms: _201  and  _203
REMARK   89  A    between atoms: _203  and  _204
REMARK   90  A    between atoms: _203  and  _206
REMARK   91  A    between atoms: _206  and  _207
REMARK   92  A    between atoms: _210  and  _212
REMARK   93  A    between atoms: _212  and  _213
REMARK   94  A    between atoms: _212  and  _215
REMARK   95  A    between atoms: _215  and  _216
REMARK   96  A    between atoms: _218  and  _220
REMARK   97  A    between atoms: _220  and  _221
REMARK   98  A    between atoms: _220  and  _223
REMARK   99  A    between atoms: _223  and  _224
REMARK  100  A    between atoms: _234  and  _236
REMARK  101  A    between atoms: _236  and  _237
REMARK  102  A    between atoms: _239  and  _241
REMARK  103  A    between atoms: _241  and  _242
REMARK  104  A    between atoms: _241  and  _244
REMARK  105  A    between atoms: _244  and  _245
REMARK  106  A    between atoms: _245  and  _246
REMARK  107  A    between atoms: _249  and  _251
REMARK  108  A    between atoms: _251  and  _252
REMARK  109  A    between atoms: _254  and  _256
REMARK  110  A    between atoms: _256  and  _257
REMARK  111  A    between atoms: _256  and  _259
REMARK  112  A    between atoms: _259  and  _260
REMARK  113  A    between atoms: _261  and  _263
REMARK  114  A    between atoms: _263  and  _264
REMARK  115  A    between atoms: _267  and  _269
REMARK  116  A    between atoms: _269  and  _270
REMARK  117  A    between atoms: _269  and  _272
REMARK  118  A    between atoms: _272  and  _273
REMARK  119  A    between atoms: _273  and  _274
REMARK  120  A    between atoms: _279  and  _281
REMARK  121  A    between atoms: _281  and  _282
REMARK  122  A    between atoms: _281  and  _284
REMARK  123  A    between atoms: _284  and  _285
REMARK  124  A    between atoms: _285  and  _286
REMARK  125  A    between atoms: _286  and  _287
REMARK  126  A    between atoms: _297  and  _298
REMARK  127  A    between atoms: _303  and  _305
REMARK  128  A    between atoms: _305  and  _306
REMARK  129  A    between atoms: _308  and  _310
REMARK  130  A    between atoms: _310  and  _311
REMARK  131  A    between atoms: _310  and  _313
REMARK  132  A    between atoms: _316  and  _318
REMARK  133  A    between atoms: _318  and  _319
REMARK  134  A    between atoms: _318  and  _321
REMARK  135  A    between atoms: _321  and  _322
REMARK  136  A    between atoms: _327  and  _328
REMARK                            x       y       z     vdW  Elec       q    Type
REMARK                         _______ _______ _______ _____ _____    ______ ____
ROOT
ATOM      1  O   HOH     1      45.139  20.731  12.563  0.00  0.00    +0.000 OA
ENDROOT
TORSDOF 0
REMARK  Name = ../refined-set-2016/4cr9/4cr9_pocket.pdb
REMARK  136 active torsions:
REMARK  status: ('A' for Active; 'I' for Inactive)
REMARK    1  A    between atoms: _1  and  _3
REMARK    2  A    between atoms: _3  and  _4
REMARK    3  A    between atoms: _3  and  _6
REMARK    4  A    between atoms: _9  and  _11
REMARK    5  A    between atoms: _11  and  _12
REMARK    6  A    between atoms: _11  and  _14
REMARK    7  A    between atoms: _16  and  _18
REMARK    8  A    between atoms: _18  and  _19
REMARK    9  A    between atoms: _22  and  _24
REMARK   10  A    between atoms: _24  and  _25
REMARK   11  A    between atoms: _24  and  _27
REMARK   12  A    between atoms: _27  and  _28
REMARK   13  A    between atoms: _33  and  _35
REMARK   14  A    between atoms: _35  and  _36
REMARK   15  A    between atoms: _39  and  _41
REMARK   16  A    between atoms: _41  and  _42
REMARK   17  A    between atoms: _41  and  _44
REMARK   18  A    between atoms: _44  and  _45
REMARK   19  A    between atoms: _48  and  _50
REMARK   20  A    between atoms: _50  and  _51
REMARK   21  A    between atoms: _50  and  _53
REMARK   22  A    between atoms: _56  and  _58
REMARK   23  A    between atoms: _58  and  _59
REMARK   24  A    between atoms: _58  and  _61
REMARK   25  A    between atoms: _61  and  _62
REMARK   26  A    between atoms: _67  and  _68
REMARK   27  A    between atoms: _70  and  _72
REMARK   28  A    between atoms: _72  and  _73
REMARK   29  A    between atoms: _72  and  _75
REMARK   30  A    between atoms: _75  and  _76
REMARK   31  A    between atoms: _76  and  _77
REMARK   32  A    between atoms: _77  and  _78
REMARK   33  A    between atoms: _78  and  _79
REMARK   34  A    between atoms: _83  and  _85
REMARK   35  A    between atoms: _85  and  _86
REMARK   36  A    between atoms: _85  and  _88
REMARK   37  A    between atoms: _88  and  _89
REMARK   38  A    between atoms: _92  and  _94
REMARK   39  A    between atoms: _94  and  _95
REMARK   40  A    between atoms: _94  and  _97
REMARK   41  A    between atoms: _97  and  _98
REMARK   42  A    between atoms: _103  and  _104
REMARK   43  A    between atoms: _106  and  _108
REMARK   44  A    between atoms: _108  and  _109
REMARK   45  A    between atoms: _112  and  _114
REMARK   46  A    between atoms: _114  and  _115
REMARK   47  A    between atoms: _114  and  _117
REMARK   48  A    between atoms: _117  and  _118
REMARK   49  A    between atoms: _118  and  _119
REMARK   50  A    between atoms: _119  and  _120
REMARK   51  A    between atoms: _120  and  _121
REMARK   52  A    between atoms: _125  and  _127
REMARK   53  A    between atoms: _127  and  _128
REMARK   54  A    between atoms: _127  and  _130
REMARK   55  A    between atoms: _130  and  _131
REMARK   56  A    between atoms: _134  and  _136
REMARK   57  A    between atoms: _136  and  _137
REMARK   58  A    between atoms: _140  and  _142
REMARK   59  A    between atoms: _142  and  _143
REMARK   60  A    between atoms: _142  and  _145
REMARK   61  A    between atoms: _145  and  _146
REMARK   62  A    between atoms: _146  and  _260
REMARK   63  A    between atoms: _147  and  _149
REMARK   64  A    between atoms: _149  and  _150
REMARK   65  A    between atoms: _149  and  _152
REMARK   66  A    between atoms: _152  and  _153
REMARK   67  A    between atoms: _153  and  _154
REMARK   68  A    between atoms: _154  and  _155
REMARK   69  A    between atoms: _155  and  _156
REMARK   70  A    between atoms: _160  and  _162
REMARK   71  A    between atoms: _162  and  _163
REMARK   72  A    between atoms: _165  and  _167
REMARK   73  A    between atoms: _167  and  _168
REMARK   74  A    between atoms: _167  and  _170
REMARK   75  A    between atoms: _170  and  _171
REMARK   76  A    between atoms: _174  and  _176
REMARK   77  A    between atoms: _176  and  _177
REMARK   78  A    between atoms: _176  and  _179
REMARK   79  A    between atoms: _179  and  _180
REMARK   80  A    between atoms: _182  and  _184
REMARK   81  A    between atoms: _184  and  _185
REMARK   82  A    between atoms: _187  and  _189
REMARK   83  A    between atoms: _189  and  _190
REMARK   84  A    between atoms: _192  and  _194
REMARK   85  A    between atoms: _194  and  _195
REMARK   86  A    between atoms: _194  and  _197
REMARK   87  A    between atoms: _197  and  _198
REMARK   88  A    between atoms: _201  and  _203
REMARK   89  A    between atoms: _203  and  _204
REMARK   90  A    between atoms: _203  and  _206
REMARK   91  A    between atoms: _206  and  _207
REMARK   92  A    between atoms: _210  and  _212
REMARK   93  A    between atoms: _212  and  _213
REMARK   94  A    between atoms: _212  and  _215
REMARK   95  A    between atoms: _215  and  _216
REMARK   96  A    between atoms: _218  and  _220
REMARK   97  A    between atoms: _220  and  _221
REMARK   98  A    between atoms: _220  and  _223
REMARK   99  A    between atoms: _223  and  _224
REMARK  100  A    between atoms: _234  and  _236
REMARK  101  A    between atoms: _236  and  _237
REMARK  102  A    between atoms: _239  and  _241
REMARK  103  A    between atoms: _241  and  _242
REMARK  104  A    between atoms: _241  and  _244
REMARK  105  A    between atoms: _244  and  _245
REMARK  106  A    between atoms: _245  and  _246
REMARK  107  A    between atoms: _249  and  _251
REMARK  108  A    between atoms: _251  and  _252
REMARK  109  A    between atoms: _254  and  _256
REMARK  110  A    between atoms: _256  and  _257
REMARK  111  A    between atoms: _256  and  _259
REMARK  112  A    between atoms: _259  and  _260
REMARK  113  A    between atoms: _261  and  _263
REMARK  114  A    between atoms: _263  and  _264
REMARK  115  A    between atoms: _267  and  _269
REMARK  116  A    between atoms: _269  and  _270
REMARK  117  A    between atoms: _269  and  _272
REMARK  118  A    between atoms: _272  and  _273
REMARK  119  A    between atoms: _273  and  _274
REMARK  120  A    between atoms: _279  and  _281
REMARK  121  A    between atoms: _281  and  _282
REMARK  122  A    between atoms: _281  and  _284
REMARK  123  A    between atoms: _284  and  _285
REMARK  124  A    between atoms: _285  and  _286
REMARK  125  A    between atoms: _286  and  _287
REMARK  126  A    between atoms: _297  and  _298
REMARK  127  A    between atoms: _303  and  _305
REMARK  128  A    between atoms: _305  and  _306
REMARK  129  A    between atoms: _308  and  _310
REMARK  130  A    between atoms: _310  and  _311
REMARK  131  A    between atoms: _310  and  _313
REMARK  132  A    between atoms: _316  and  _318
REMARK  133  A    between atoms: _318  and  _319
REMARK  134  A    between atoms: _318  and  _321
REMARK  135  A    between atoms: _321  and  _322
REMARK  136  A    between atoms: _327  and  _328
REMARK                            x       y       z     vdW  Elec       q    Type
REMARK                         _______ _______ _______ _____ _____    ______ ____
ROOT
ATOM      1  O   HOH     1      51.993  20.529  15.134  0.00  0.00    +0.000 OA
ENDROOT
TORSDOF 0
REMARK  Name = ../refined-set-2016/4cr9/4cr9_pocket.pdb
REMARK  136 active torsions:
REMARK  status: ('A' for Active; 'I' for Inactive)
REMARK    1  A    between atoms: _1  and  _3
REMARK    2  A    between atoms: _3  and  _4
REMARK    3  A    between atoms: _3  and  _6
REMARK    4  A    between atoms: _9  and  _11
REMARK    5  A    between atoms: _11  and  _12
REMARK    6  A    between atoms: _11  and  _14
REMARK    7  A    between atoms: _16  and  _18
REMARK    8  A    between atoms: _18  and  _19
REMARK    9  A    between atoms: _22  and  _24
REMARK   10  A    between atoms: _24  and  _25
REMARK   11  A    between atoms: _24  and  _27
REMARK   12  A    between atoms: _27  and  _28
REMARK   13  A    between atoms: _33  and  _35
REMARK   14  A    between atoms: _35  and  _36
REMARK   15  A    between atoms: _39  and  _41
REMARK   16  A    between atoms: _41  and  _42
REMARK   17  A    between atoms: _41  and  _44
REMARK   18  A    between atoms: _44  and  _45
REMARK   19  A    between atoms: _48  and  _50
REMARK   20  A    between atoms: _50  and  _51
REMARK   21  A    between atoms: _50  and  _53
REMARK   22  A    between atoms: _56  and  _58
REMARK   23  A    between atoms: _58  and  _59
REMARK   24  A    between atoms: _58  and  _61
REMARK   25  A    between atoms: _61  and  _62
REMARK   26  A    between atoms: _67  and  _68
REMARK   27  A    between atoms: _70  and  _72
REMARK   28  A    between atoms: _72  and  _73
REMARK   29  A    between atoms: _72  and  _75
REMARK   30  A    between atoms: _75  and  _76
REMARK   31  A    between atoms: _76  and  _77
REMARK   32  A    between atoms: _77  and  _78
REMARK   33  A    between atoms: _78  and  _79
REMARK   34  A    between atoms: _83  and  _85
REMARK   35  A    between atoms: _85  and  _86
REMARK   36  A    between atoms: _85  and  _88
REMARK   37  A    between atoms: _88  and  _89
REMARK   38  A    between atoms: _92  and  _94
REMARK   39  A    between atoms: _94  and  _95
REMARK   40  A    between atoms: _94  and  _97
REMARK   41  A    between atoms: _97  and  _98
REMARK   42  A    between atoms: _103  and  _104
REMARK   43  A    between atoms: _106  and  _108
REMARK   44  A    between atoms: _108  and  _109
REMARK   45  A    between atoms: _112  and  _114
REMARK   46  A    between atoms: _114  and  _115
REMARK   47  A    between atoms: _114  and  _117
REMARK   48  A    between atoms: _117  and  _118
REMARK   49  A    between atoms: _118  and  _119
REMARK   50  A    between atoms: _119  and  _120
REMARK   51  A    between atoms: _120  and  _121
REMARK   52  A    between atoms: _125  and  _127
REMARK   53  A    between atoms: _127  and  _128
REMARK   54  A    between atoms: _127  and  _130
REMARK   55  A    between atoms: _130  and  _131
REMARK   56  A    between atoms: _134  and  _136
REMARK   57  A    between atoms: _136  and  _137
REMARK   58  A    between atoms: _140  and  _142
REMARK   59  A    between atoms: _142  and  _143
REMARK   60  A    between atoms: _142  and  _145
REMARK   61  A    between atoms: _145  and  _146
REMARK   62  A    between atoms: _146  and  _260
REMARK   63  A    between atoms: _147  and  _149
REMARK   64  A    between atoms: _149  and  _150
REMARK   65  A    between atoms: _149  and  _152
REMARK   66  A    between atoms: _152  and  _153
REMARK   67  A    between atoms: _153  and  _154
REMARK   68  A    between atoms: _154  and  _155
REMARK   69  A    between atoms: _155  and  _156
REMARK   70  A    between atoms: _160  and  _162
REMARK   71  A    between atoms: _162  and  _163
REMARK   72  A    between atoms: _165  and  _167
REMARK   73  A    between atoms: _167  and  _168
REMARK   74  A    between atoms: _167  and  _170
REMARK   75  A    between atoms: _170  and  _171
REMARK   76  A    between atoms: _174  and  _176
REMARK   77  A    between atoms: _176  and  _177
REMARK   78  A    between atoms: _176  and  _179
REMARK   79  A    between atoms: _179  and  _180
REMARK   80  A    between atoms: _182  and  _184
REMARK   81  A    between atoms: _184  and  _185
REMARK   82  A    between atoms: _187  and  _189
REMARK   83  A    between atoms: _189  and  _190
REMARK   84  A    between atoms: _192  and  _194
REMARK   85  A    between atoms: _194  and  _195
REMARK   86  A    between atoms: _194  and  _197
REMARK   87  A    between atoms: _197  and  _198
REMARK   88  A    between atoms: _201  and  _203
REMARK   89  A    between atoms: _203  and  _204
REMARK   90  A    between atoms: _203  and  _206
REMARK   91  A    between atoms: _206  and  _207
REMARK   92  A    between atoms: _210  and  _212
REMARK   93  A    between atoms: _212  and  _213
REMARK   94  A    between atoms: _212  and  _215
REMARK   95  A    between atoms: _215  and  _216
REMARK   96  A    between atoms: _218  and  _220
REMARK   97  A    between atoms: _220  and  _221
REMARK   98  A    between atoms: _220  and  _223
REMARK   99  A    between atoms: _223  and  _224
REMARK  100  A    between atoms: _234  and  _236
REMARK  101  A    between atoms: _236  and  _237
REMARK  102  A    between atoms: _239  and  _241
REMARK  103  A    between atoms: _241  and  _242
REMARK  104  A    between atoms: _241  and  _244
REMARK  105  A    between atoms: _244  and  _245
REMARK  106  A    between atoms: _245  and  _246
REMARK  107  A    between atoms: _249  and  _251
REMARK  108  A    between atoms: _251  and  _252
REMARK  109  A    between atoms: _254  and  _256
REMARK  110  A    between atoms: _256  and  _257
REMARK  111  A    between atoms: _256  and  _259
REMARK  112  A    between atoms: _259  and  _260
REMARK  113  A    between atoms: _261  and  _263
REMARK  114  A    between atoms: _263  and  _264
REMARK  115  A    between atoms: _267  and  _269
REMARK  116  A    between atoms: _269  and  _270
REMARK  117  A    between atoms: _269  and  _272
REMARK  118  A    between atoms: _272  and  _273
REMARK  119  A    between atoms: _273  and  _274
REMARK  120  A    between atoms: _279  and  _281
REMARK  121  A    between atoms: _281  and  _282
REMARK  122  A    between atoms: _281  and  _284
REMARK  123  A    between atoms: _284  and  _285
REMARK  124  A    between atoms: _285  and  _286
REMARK  125  A    between atoms: _286  and  _287
REMARK  126  A    between atoms: _297  and  _298
REMARK  127  A    between atoms: _303  and  _305
REMARK  128  A    between atoms: _305  and  _306
REMARK  129  A    between atoms: _308  and  _310
REMARK  130  A    between atoms: _310  and  _311
REMARK  131  A    between atoms: _310  and  _313
REMARK  132  A    between atoms: _316  and  _318
REMARK  133  A    between atoms: _318  and  _319
REMARK  134  A    between atoms: _318  and  _321
REMARK  135  A    between atoms: _321  and  _322
REMARK  136  A    between atoms: _327  and  _328
REMARK                            x       y       z     vdW  Elec       q    Type
REMARK                         _______ _______ _______ _____ _____    ______ ____
ROOT
ATOM      1  O   HOH     1      53.997  18.482  15.798  0.00  0.00    +0.000 OA
ENDROOT
TORSDOF 0
REMARK  Name = ../refined-set-2016/4cr9/4cr9_pocket.pdb
REMARK  136 active torsions:
REMARK  status: ('A' for Active; 'I' for Inactive)
REMARK    1  A    between atoms: _1  and  _3
REMARK    2  A    between atoms: _3  and  _4
REMARK    3  A    between atoms: _3  and  _6
REMARK    4  A    between atoms: _9  and  _11
REMARK    5  A    between atoms: _11  and  _12
REMARK    6  A    between atoms: _11  and  _14
REMARK    7  A    between atoms: _16  and  _18
REMARK    8  A    between atoms: _18  and  _19
REMARK    9  A    between atoms: _22  and  _24
REMARK   10  A    between atoms: _24  and  _25
REMARK   11  A    between atoms: _24  and  _27
REMARK   12  A    between atoms: _27  and  _28
REMARK   13  A    between atoms: _33  and  _35
REMARK   14  A    between atoms: _35  and  _36
REMARK   15  A    between atoms: _39  and  _41
REMARK   16  A    between atoms: _41  and  _42
REMARK   17  A    between atoms: _41  and  _44
REMARK   18  A    between atoms: _44  and  _45
REMARK   19  A    between atoms: _48  and  _50
REMARK   20  A    between atoms: _50  and  _51
REMARK   21  A    between atoms: _50  and  _53
REMARK   22  A    between atoms: _56  and  _58
REMARK   23  A    between atoms: _58  and  _59
REMARK   24  A    between atoms: _58  and  _61
REMARK   25  A    between atoms: _61  and  _62
REMARK   26  A    between atoms: _67  and  _68
REMARK   27  A    between atoms: _70  and  _72
REMARK   28  A    between atoms: _72  and  _73
REMARK   29  A    between atoms: _72  and  _75
REMARK   30  A    between atoms: _75  and  _76
REMARK   31  A    between atoms: _76  and  _77
REMARK   32  A    between atoms: _77  and  _78
REMARK   33  A    between atoms: _78  and  _79
REMARK   34  A    between atoms: _83  and  _85
REMARK   35  A    between atoms: _85  and  _86
REMARK   36  A    between atoms: _85  and  _88
REMARK   37  A    between atoms: _88  and  _89
REMARK   38  A    between atoms: _92  and  _94
REMARK   39  A    between atoms: _94  and  _95
REMARK   40  A    between atoms: _94  and  _97
REMARK   41  A    between atoms: _97  and  _98
REMARK   42  A    between atoms: _103  and  _104
REMARK   43  A    between atoms: _106  and  _108
REMARK   44  A    between atoms: _108  and  _109
REMARK   45  A    between atoms: _112  and  _114
REMARK   46  A    between atoms: _114  and  _115
REMARK   47  A    between atoms: _114  and  _117
REMARK   48  A    between atoms: _117  and  _118
REMARK   49  A    between atoms: _118  and  _119
REMARK   50  A    between atoms: _119  and  _120
REMARK   51  A    between atoms: _120  and  _121
REMARK   52  A    between atoms: _125  and  _127
REMARK   53  A    between atoms: _127  and  _128
REMARK   54  A    between atoms: _127  and  _130
REMARK   55  A    between atoms: _130  and  _131
REMARK   56  A    between atoms: _134  and  _136
REMARK   57  A    between atoms: _136  and  _137
REMARK   58  A    between atoms: _140  and  _142
REMARK   59  A    between atoms: _142  and  _143
REMARK   60  A    between atoms: _142  and  _145
REMARK   61  A    between atoms: _145  and  _146
REMARK   62  A    between atoms: _146  and  _260
REMARK   63  A    between atoms: _147  and  _149
REMARK   64  A    between atoms: _149  and  _150
REMARK   65  A    between atoms: _149  and  _152
REMARK   66  A    between atoms: _152  and  _153
REMARK   67  A    between atoms: _153  and  _154
REMARK   68  A    between atoms: _154  and  _155
REMARK   69  A    between atoms: _155  and  _156
REMARK   70  A    between atoms: _160  and  _162
REMARK   71  A    between atoms: _162  and  _163
REMARK   72  A    between atoms: _165  and  _167
REMARK   73  A    between atoms: _167  and  _168
REMARK   74  A    between atoms: _167  and  _170
REMARK   75  A    between atoms: _170  and  _171
REMARK   76  A    between atoms: _174  and  _176
REMARK   77  A    between atoms: _176  and  _177
REMARK   78  A    between atoms: _176  and  _179
REMARK   79  A    between atoms: _179  and  _180
REMARK   80  A    between atoms: _182  and  _184
REMARK   81  A    between atoms: _184  and  _185
REMARK   82  A    between atoms: _187  and  _189
REMARK   83  A    between atoms: _189  and  _190
REMARK   84  A    between atoms: _192  and  _194
REMARK   85  A    between atoms: _194  and  _195
REMARK   86  A    between atoms: _194  and  _197
REMARK   87  A    between atoms: _197  and  _198
REMARK   88  A    between atoms: _201  and  _203
REMARK   89  A    between atoms: _203  and  _204
REMARK   90  A    between atoms: _203  and  _206
REMARK   91  A    between atoms: _206  and  _207
REMARK   92  A    between atoms: _210  and  _212
REMARK   93  A    between atoms: _212  and  _213
REMARK   94  A    between atoms: _212  and  _215
REMARK   95  A    between atoms: _215  and  _216
REMARK   96  A    between atoms: _218  and  _220
REMARK   97  A    between atoms: _220  and  _221
REMARK   98  A    between atoms: _220  and  _223
REMARK   99  A    between atoms: _223  and  _224
REMARK  100  A    between atoms: _234  and  _236
REMARK  101  A    between atoms: _236  and  _237
REMARK  102  A    between atoms: _239  and  _241
REMARK  103  A    between atoms: _241  and  _242
REMARK  104  A    between atoms: _241  and  _244
REMARK  105  A    between atoms: _244  and  _245
REMARK  106  A    between atoms: _245  and  _246
REMARK  107  A    between atoms: _249  and  _251
REMARK  108  A    between atoms: _251  and  _252
REMARK  109  A    between atoms: _254  and  _256
REMARK  110  A    between atoms: _256  and  _257
REMARK  111  A    between atoms: _256  and  _259
REMARK  112  A    between atoms: _259  and  _260
REMARK  113  A    between atoms: _261  and  _263
REMARK  114  A    between atoms: _263  and  _264
REMARK  115  A    between atoms: _267  and  _269
REMARK  116  A    between atoms: _269  and  _270
REMARK  117  A    between atoms: _269  and  _272
REMARK  118  A    between atoms: _272  and  _273
REMARK  119  A    between atoms: _273  and  _274
REMARK  120  A    between atoms: _279  and  _281
REMARK  121  A    between atoms: _281  and  _282
REMARK  122  A    between atoms: _281  and  _284
REMARK  123  A    between atoms: _284  and  _285
REMARK  124  A    between atoms: _285  and  _286
REMARK  125  A    between atoms: _286  and  _287
REMARK  126  A    between atoms: _297  and  _298
REMARK  127  A    between atoms: _303  and  _305
REMARK  128  A    between atoms: _305  and  _306
REMARK  129  A    between atoms: _308  and  _310
REMARK  130  A    between atoms: _310  and  _311
REMARK  131  A    between atoms: _310  and  _313
REMARK  132  A    between atoms: _316  and  _318
REMARK  133  A    between atoms: _318  and  _319
REMARK  134  A    between atoms: _318  and  _321
REMARK  135  A    between atoms: _321  and  _322
REMARK  136  A    between atoms: _327  and  _328
REMARK                            x       y       z     vdW  Elec       q    Type
REMARK                         _______ _______ _______ _____ _____    ______ ____
ROOT
ATOM      1  O   HOH     1      49.315  13.305  11.379  0.00  0.00    +0.000 OA
ENDROOT
TORSDOF 0
REMARK  Name = ../refined-set-2016/4cr9/4cr9_pocket.pdb
REMARK  136 active torsions:
REMARK  status: ('A' for Active; 'I' for Inactive)
REMARK    1  A    between atoms: _1  and  _3
REMARK    2  A    between atoms: _3  and  _4
REMARK    3  A    between atoms: _3  and  _6
REMARK    4  A    between atoms: _9  and  _11
REMARK    5  A    between atoms: _11  and  _12
REMARK    6  A    between atoms: _11  and  _14
REMARK    7  A    between atoms: _16  and  _18
REMARK    8  A    between atoms: _18  and  _19
REMARK    9  A    between atoms: _22  and  _24
REMARK   10  A    between atoms: _24  and  _25
REMARK   11  A    between atoms: _24  and  _27
REMARK   12  A    between atoms: _27  and  _28
REMARK   13  A    between atoms: _33  and  _35
REMARK   14  A    between atoms: _35  and  _36
REMARK   15  A    between atoms: _39  and  _41
REMARK   16  A    between atoms: _41  and  _42
REMARK   17  A    between atoms: _41  and  _44
REMARK   18  A    between atoms: _44  and  _45
REMARK   19  A    between atoms: _48  and  _50
REMARK   20  A    between atoms: _50  and  _51
REMARK   21  A    between atoms: _50  and  _53
REMARK   22  A    between atoms: _56  and  _58
REMARK   23  A    between atoms: _58  and  _59
REMARK   24  A    between atoms: _58  and  _61
REMARK   25  A    between atoms: _61  and  _62
REMARK   26  A    between atoms: _67  and  _68
REMARK   27  A    between atoms: _70  and  _72
REMARK   28  A    between atoms: _72  and  _73
REMARK   29  A    between atoms: _72  and  _75
REMARK   30  A    between atoms: _75  and  _76
REMARK   31  A    between atoms: _76  and  _77
REMARK   32  A    between atoms: _77  and  _78
REMARK   33  A    between atoms: _78  and  _79
REMARK   34  A    between atoms: _83  and  _85
REMARK   35  A    between atoms: _85  and  _86
REMARK   36  A    between atoms: _85  and  _88
REMARK   37  A    between atoms: _88  and  _89
REMARK   38  A    between atoms: _92  and  _94
REMARK   39  A    between atoms: _94  and  _95
REMARK   40  A    between atoms: _94  and  _97
REMARK   41  A    between atoms: _97  and  _98
REMARK   42  A    between atoms: _103  and  _104
REMARK   43  A    between atoms: _106  and  _108
REMARK   44  A    between atoms: _108  and  _109
REMARK   45  A    between atoms: _112  and  _114
REMARK   46  A    between atoms: _114  and  _115
REMARK   47  A    between atoms: _114  and  _117
REMARK   48  A    between atoms: _117  and  _118
REMARK   49  A    between atoms: _118  and  _119
REMARK   50  A    between atoms: _119  and  _120
REMARK   51  A    between atoms: _120  and  _121
REMARK   52  A    between atoms: _125  and  _127
REMARK   53  A    between atoms: _127  and  _128
REMARK   54  A    between atoms: _127  and  _130
REMARK   55  A    between atoms: _130  and  _131
REMARK   56  A    between atoms: _134  and  _136
REMARK   57  A    between atoms: _136  and  _137
REMARK   58  A    between atoms: _140  and  _142
REMARK   59  A    between atoms: _142  and  _143
REMARK   60  A    between atoms: _142  and  _145
REMARK   61  A    between atoms: _145  and  _146
REMARK   62  A    between atoms: _146  and  _260
REMARK   63  A    between atoms: _147  and  _149
REMARK   64  A    between atoms: _149  and  _150
REMARK   65  A    between atoms: _149  and  _152
REMARK   66  A    between atoms: _152  and  _153
REMARK   67  A    between atoms: _153  and  _154
REMARK   68  A    between atoms: _154  and  _155
REMARK   69  A    between atoms: _155  and  _156
REMARK   70  A    between atoms: _160  and  _162
REMARK   71  A    between atoms: _162  and  _163
REMARK   72  A    between atoms: _165  and  _167
REMARK   73  A    between atoms: _167  and  _168
REMARK   74  A    between atoms: _167  and  _170
REMARK   75  A    between atoms: _170  and  _171
REMARK   76  A    between atoms: _174  and  _176
REMARK   77  A    between atoms: _176  and  _177
REMARK   78  A    between atoms: _176  and  _179
REMARK   79  A    between atoms: _179  and  _180
REMARK   80  A    between atoms: _182  and  _184
REMARK   81  A    between atoms: _184  and  _185
REMARK   82  A    between atoms: _187  and  _189
REMARK   83  A    between atoms: _189  and  _190
REMARK   84  A    between atoms: _192  and  _194
REMARK   85  A    between atoms: _194  and  _195
REMARK   86  A    between atoms: _194  and  _197
REMARK   87  A    between atoms: _197  and  _198
REMARK   88  A    between atoms: _201  and  _203
REMARK   89  A    between atoms: _203  and  _204
REMARK   90  A    between atoms: _203  and  _206
REMARK   91  A    between atoms: _206  and  _207
REMARK   92  A    between atoms: _210  and  _212
REMARK   93  A    between atoms: _212  and  _213
REMARK   94  A    between atoms: _212  and  _215
REMARK   95  A    between atoms: _215  and  _216
REMARK   96  A    between atoms: _218  and  _220
REMARK   97  A    between atoms: _220  and  _221
REMARK   98  A    between atoms: _220  and  _223
REMARK   99  A    between atoms: _223  and  _224
REMARK  100  A    between atoms: _234  and  _236
REMARK  101  A    between atoms: _236  and  _237
REMARK  102  A    between atoms: _239  and  _241
REMARK  103  A    between atoms: _241  and  _242
REMARK  104  A    between atoms: _241  and  _244
REMARK  105  A    between atoms: _244  and  _245
REMARK  106  A    between atoms: _245  and  _246
REMARK  107  A    between atoms: _249  and  _251
REMARK  108  A    between atoms: _251  and  _252
REMARK  109  A    between atoms: _254  and  _256
REMARK  110  A    between atoms: _256  and  _257
REMARK  111  A    between atoms: _256  and  _259
REMARK  112  A    between atoms: _259  and  _260
REMARK  113  A    between atoms: _261  and  _263
REMARK  114  A    between atoms: _263  and  _264
REMARK  115  A    between atoms: _267  and  _269
REMARK  116  A    between atoms: _269  and  _270
REMARK  117  A    between atoms: _269  and  _272
REMARK  118  A    between atoms: _272  and  _273
REMARK  119  A    between atoms: _273  and  _274
REMARK  120  A    between atoms: _279  and  _281
REMARK  121  A    between atoms: _281  and  _282
REMARK  122  A    between atoms: _281  and  _284
REMARK  123  A    between atoms: _284  and  _285
REMARK  124  A    between atoms: _285  and  _286
REMARK  125  A    between atoms: _286  and  _287
REMARK  126  A    between atoms: _297  and  _298
REMARK  127  A    between atoms: _303  and  _305
REMARK  128  A    between atoms: _305  and  _306
REMARK  129  A    between atoms: _308  and  _310
REMARK  130  A    between atoms: _310  and  _311
REMARK  131  A    between atoms: _310  and  _313
REMARK  132  A    between atoms: _316  and  _318
REMARK  133  A    between atoms: _318  and  _319
REMARK  134  A    between atoms: _318  and  _321
REMARK  135  A    between atoms: _321  and  _322
REMARK  136  A    between atoms: _327  and  _328
REMARK                            x       y       z     vdW  Elec       q    Type
REMARK                         _______ _______ _______ _____ _____    ______ ____
ROOT
ATOM      1  O   HOH     1      55.288  16.572  13.456  0.00  0.00    +0.000 OA
ENDROOT
TORSDOF 0
REMARK  Name = ../refined-set-2016/4cr9/4cr9_pocket.pdb
REMARK  136 active torsions:
REMARK  status: ('A' for Active; 'I' for Inactive)
REMARK    1  A    between atoms: _1  and  _3
REMARK    2  A    between atoms: _3  and  _4
REMARK    3  A    between atoms: _3  and  _6
REMARK    4  A    between atoms: _9  and  _11
REMARK    5  A    between atoms: _11  and  _12
REMARK    6  A    between atoms: _11  and  _14
REMARK    7  A    between atoms: _16  and  _18
REMARK    8  A    between atoms: _18  and  _19
REMARK    9  A    between atoms: _22  and  _24
REMARK   10  A    between atoms: _24  and  _25
REMARK   11  A    between atoms: _24  and  _27
REMARK   12  A    between atoms: _27  and  _28
REMARK   13  A    between atoms: _33  and  _35
REMARK   14  A    between atoms: _35  and  _36
REMARK   15  A    between atoms: _39  and  _41
REMARK   16  A    between atoms: _41  and  _42
REMARK   17  A    between atoms: _41  and  _44
REMARK   18  A    between atoms: _44  and  _45
REMARK   19  A    between atoms: _48  and  _50
REMARK   20  A    between atoms: _50  and  _51
REMARK   21  A    between atoms: _50  and  _53
REMARK   22  A    between atoms: _56  and  _58
REMARK   23  A    between atoms: _58  and  _59
REMARK   24  A    between atoms: _58  and  _61
REMARK   25  A    between atoms: _61  and  _62
REMARK   26  A    between atoms: _67  and  _68
REMARK   27  A    between atoms: _70  and  _72
REMARK   28  A    between atoms: _72  and  _73
REMARK   29  A    between atoms: _72  and  _75
REMARK   30  A    between atoms: _75  and  _76
REMARK   31  A    between atoms: _76  and  _77
REMARK   32  A    between atoms: _77  and  _78
REMARK   33  A    between atoms: _78  and  _79
REMARK   34  A    between atoms: _83  and  _85
REMARK   35  A    between atoms: _85  and  _86
REMARK   36  A    between atoms: _85  and  _88
REMARK   37  A    between atoms: _88  and  _89
REMARK   38  A    between atoms: _92  and  _94
REMARK   39  A    between atoms: _94  and  _95
REMARK   40  A    between atoms: _94  and  _97
REMARK   41  A    between atoms: _97  and  _98
REMARK   42  A    between atoms: _103  and  _104
REMARK   43  A    between atoms: _106  and  _108
REMARK   44  A    between atoms: _108  and  _109
REMARK   45  A    between atoms: _112  and  _114
REMARK   46  A    between atoms: _114  and  _115
REMARK   47  A    between atoms: _114  and  _117
REMARK   48  A    between atoms: _117  and  _118
REMARK   49  A    between atoms: _118  and  _119
REMARK   50  A    between atoms: _119  and  _120
REMARK   51  A    between atoms: _120  and  _121
REMARK   52  A    between atoms: _125  and  _127
REMARK   53  A    between atoms: _127  and  _128
REMARK   54  A    between atoms: _127  and  _130
REMARK   55  A    between atoms: _130  and  _131
REMARK   56  A    between atoms: _134  and  _136
REMARK   57  A    between atoms: _136  and  _137
REMARK   58  A    between atoms: _140  and  _142
REMARK   59  A    between atoms: _142  and  _143
REMARK   60  A    between atoms: _142  and  _145
REMARK   61  A    between atoms: _145  and  _146
REMARK   62  A    between atoms: _146  and  _260
REMARK   63  A    between atoms: _147  and  _149
REMARK   64  A    between atoms: _149  and  _150
REMARK   65  A    between atoms: _149  and  _152
REMARK   66  A    between atoms: _152  and  _153
REMARK   67  A    between atoms: _153  and  _154
REMARK   68  A    between atoms: _154  and  _155
REMARK   69  A    between atoms: _155  and  _156
REMARK   70  A    between atoms: _160  and  _162
REMARK   71  A    between atoms: _162  and  _163
REMARK   72  A    between atoms: _165  and  _167
REMARK   73  A    between atoms: _167  and  _168
REMARK   74  A    between atoms: _167  and  _170
REMARK   75  A    between atoms: _170  and  _171
REMARK   76  A    between atoms: _174  and  _176
REMARK   77  A    between atoms: _176  and  _177
REMARK   78  A    between atoms: _176  and  _179
REMARK   79  A    between atoms: _179  and  _180
REMARK   80  A    between atoms: _182  and  _184
REMARK   81  A    between atoms: _184  and  _185
REMARK   82  A    between atoms: _187  and  _189
REMARK   83  A    between atoms: _189  and  _190
REMARK   84  A    between atoms: _192  and  _194
REMARK   85  A    between atoms: _194  and  _195
REMARK   86  A    between atoms: _194  and  _197
REMARK   87  A    between atoms: _197  and  _198
REMARK   88  A    between atoms: _201  and  _203
REMARK   89  A    between atoms: _203  and  _204
REMARK   90  A    between atoms: _203  and  _206
REMARK   91  A    between atoms: _206  and  _207
REMARK   92  A    between atoms: _210  and  _212
REMARK   93  A    between atoms: _212  and  _213
REMARK   94  A    between atoms: _212  and  _215
REMARK   95  A    between atoms: _215  and  _216
REMARK   96  A    between atoms: _218  and  _220
REMARK   97  A    between atoms: _220  and  _221
REMARK   98  A    between atoms: _220  and  _223
REMARK   99  A    between atoms: _223  and  _224
REMARK  100  A    between atoms: _234  and  _236
REMARK  101  A    between atoms: _236  and  _237
REMARK  102  A    between atoms: _239  and  _241
REMARK  103  A    between atoms: _241  and  _242
REMARK  104  A    between atoms: _241  and  _244
REMARK  105  A    between atoms: _244  and  _245
REMARK  106  A    between atoms: _245  and  _246
REMARK  107  A    between atoms: _249  and  _251
REMARK  108  A    between atoms: _251  and  _252
REMARK  109  A    between atoms: _254  and  _256
REMARK  110  A    between atoms: _256  and  _257
REMARK  111  A    between atoms: _256  and  _259
REMARK  112  A    between atoms: _259  and  _260
REMARK  113  A    between atoms: _261  and  _263
REMARK  114  A    between atoms: _263  and  _264
REMARK  115  A    between atoms: _267  and  _269
REMARK  116  A    between atoms: _269  and  _270
REMARK  117  A    between atoms: _269  and  _272
REMARK  118  A    between atoms: _272  and  _273
REMARK  119  A    between atoms: _273  and  _274
REMARK  120  A    between atoms: _279  and  _281
REMARK  121  A    between atoms: _281  and  _282
REMARK  122  A    between atoms: _281  and  _284
REMARK  123  A    between atoms: _284  and  _285
REMARK  124  A    between atoms: _285  and  _286
REMARK  125  A    between atoms: _286  and  _287
REMARK  126  A    between atoms: _297  and  _298
REMARK  127  A    between atoms: _303  and  _305
REMARK  128  A    between atoms: _305  and  _306
REMARK  129  A    between atoms: _308  and  _310
REMARK  130  A    between atoms: _310  and  _311
REMARK  131  A    between atoms: _310  and  _313
REMARK  132  A    between atoms: _316  and  _318
REMARK  133  A    between atoms: _318  and  _319
REMARK  134  A    between atoms: _318  and  _321
REMARK  135  A    between atoms: _321  and  _322
REMARK  136  A    between atoms: _327  and  _328
REMARK                            x       y       z     vdW  Elec       q    Type
REMARK                         _______ _______ _______ _____ _____    ______ ____
ROOT
ATOM      1  O   HOH     1      53.662  13.023   8.837  0.00  0.00    +0.000 OA
ENDROOT
TORSDOF 0
REMARK  Name = ../refined-set-2016/4cr9/4cr9_pocket.pdb
REMARK  136 active torsions:
REMARK  status: ('A' for Active; 'I' for Inactive)
REMARK    1  A    between atoms: _1  and  _3
REMARK    2  A    between atoms: _3  and  _4
REMARK    3  A    between atoms: _3  and  _6
REMARK    4  A    between atoms: _9  and  _11
REMARK    5  A    between atoms: _11  and  _12
REMARK    6  A    between atoms: _11  and  _14
REMARK    7  A    between atoms: _16  and  _18
REMARK    8  A    between atoms: _18  and  _19
REMARK    9  A    between atoms: _22  and  _24
REMARK   10  A    between atoms: _24  and  _25
REMARK   11  A    between atoms: _24  and  _27
REMARK   12  A    between atoms: _27  and  _28
REMARK   13  A    between atoms: _33  and  _35
REMARK   14  A    between atoms: _35  and  _36
REMARK   15  A    between atoms: _39  and  _41
REMARK   16  A    between atoms: _41  and  _42
REMARK   17  A    between atoms: _41  and  _44
REMARK   18  A    between atoms: _44  and  _45
REMARK   19  A    between atoms: _48  and  _50
REMARK   20  A    between atoms: _50  and  _51
REMARK   21  A    between atoms: _50  and  _53
REMARK   22  A    between atoms: _56  and  _58
REMARK   23  A    between atoms: _58  and  _59
REMARK   24  A    between atoms: _58  and  _61
REMARK   25  A    between atoms: _61  and  _62
REMARK   26  A    between atoms: _67  and  _68
REMARK   27  A    between atoms: _70  and  _72
REMARK   28  A    between atoms: _72  and  _73
REMARK   29  A    between atoms: _72  and  _75
REMARK   30  A    between atoms: _75  and  _76
REMARK   31  A    between atoms: _76  and  _77
REMARK   32  A    between atoms: _77  and  _78
REMARK   33  A    between atoms: _78  and  _79
REMARK   34  A    between atoms: _83  and  _85
REMARK   35  A    between atoms: _85  and  _86
REMARK   36  A    between atoms: _85  and  _88
REMARK   37  A    between atoms: _88  and  _89
REMARK   38  A    between atoms: _92  and  _94
REMARK   39  A    between atoms: _94  and  _95
REMARK   40  A    between atoms: _94  and  _97
REMARK   41  A    between atoms: _97  and  _98
REMARK   42  A    between atoms: _103  and  _104
REMARK   43  A    between atoms: _106  and  _108
REMARK   44  A    between atoms: _108  and  _109
REMARK   45  A    between atoms: _112  and  _114
REMARK   46  A    between atoms: _114  and  _115
REMARK   47  A    between atoms: _114  and  _117
REMARK   48  A    between atoms: _117  and  _118
REMARK   49  A    between atoms: _118  and  _119
REMARK   50  A    between atoms: _119  and  _120
REMARK   51  A    between atoms: _120  and  _121
REMARK   52  A    between atoms: _125  and  _127
REMARK   53  A    between atoms: _127  and  _128
REMARK   54  A    between atoms: _127  and  _130
REMARK   55  A    between atoms: _130  and  _131
REMARK   56  A    between atoms: _134  and  _136
REMARK   57  A    between atoms: _136  and  _137
REMARK   58  A    between atoms: _140  and  _142
REMARK   59  A    between atoms: _142  and  _143
REMARK   60  A    between atoms: _142  and  _145
REMARK   61  A    between atoms: _145  and  _146
REMARK   62  A    between atoms: _146  and  _260
REMARK   63  A    between atoms: _147  and  _149
REMARK   64  A    between atoms: _149  and  _150
REMARK   65  A    between atoms: _149  and  _152
REMARK   66  A    between atoms: _152  and  _153
REMARK   67  A    between atoms: _153  and  _154
REMARK   68  A    between atoms: _154  and  _155
REMARK   69  A    between atoms: _155  and  _156
REMARK   70  A    between atoms: _160  and  _162
REMARK   71  A    between atoms: _162  and  _163
REMARK   72  A    between atoms: _165  and  _167
REMARK   73  A    between atoms: _167  and  _168
REMARK   74  A    between atoms: _167  and  _170
REMARK   75  A    between atoms: _170  and  _171
REMARK   76  A    between atoms: _174  and  _176
REMARK   77  A    between atoms: _176  and  _177
REMARK   78  A    between atoms: _176  and  _179
REMARK   79  A    between atoms: _179  and  _180
REMARK   80  A    between atoms: _182  and  _184
REMARK   81  A    between atoms: _184  and  _185
REMARK   82  A    between atoms: _187  and  _189
REMARK   83  A    between atoms: _189  and  _190
REMARK   84  A    between atoms: _192  and  _194
REMARK   85  A    between atoms: _194  and  _195
REMARK   86  A    between atoms: _194  and  _197
REMARK   87  A    between atoms: _197  and  _198
REMARK   88  A    between atoms: _201  and  _203
REMARK   89  A    between atoms: _203  and  _204
REMARK   90  A    between atoms: _203  and  _206
REMARK   91  A    between atoms: _206  and  _207
REMARK   92  A    between atoms: _210  and  _212
REMARK   93  A    between atoms: _212  and  _213
REMARK   94  A    between atoms: _212  and  _215
REMARK   95  A    between atoms: _215  and  _216
REMARK   96  A    between atoms: _218  and  _220
REMARK   97  A    between atoms: _220  and  _221
REMARK   98  A    between atoms: _220  and  _223
REMARK   99  A    between atoms: _223  and  _224
REMARK  100  A    between atoms: _234  and  _236
REMARK  101  A    between atoms: _236  and  _237
REMARK  102  A    between atoms: _239  and  _241
REMARK  103  A    between atoms: _241  and  _242
REMARK  104  A    between atoms: _241  and  _244
REMARK  105  A    between atoms: _244  and  _245
REMARK  106  A    between atoms: _245  and  _246
REMARK  107  A    between atoms: _249  and  _251
REMARK  108  A    between atoms: _251  and  _252
REMARK  109  A    between atoms: _254  and  _256
REMARK  110  A    between atoms: _256  and  _257
REMARK  111  A    between atoms: _256  and  _259
REMARK  112  A    between atoms: _259  and  _260
REMARK  113  A    between atoms: _261  and  _263
REMARK  114  A    between atoms: _263  and  _264
REMARK  115  A    between atoms: _267  and  _269
REMARK  116  A    between atoms: _269  and  _270
REMARK  117  A    between atoms: _269  and  _272
REMARK  118  A    between atoms: _272  and  _273
REMARK  119  A    between atoms: _273  and  _274
REMARK  120  A    between atoms: _279  and  _281
REMARK  121  A    between atoms: _281  and  _282
REMARK  122  A    between atoms: _281  and  _284
REMARK  123  A    between atoms: _284  and  _285
REMARK  124  A    between atoms: _285  and  _286
REMARK  125  A    between atoms: _286  and  _287
REMARK  126  A    between atoms: _297  and  _298
REMARK  127  A    between atoms: _303  and  _305
REMARK  128  A    between atoms: _305  and  _306
REMARK  129  A    between atoms: _308  and  _310
REMARK  130  A    between atoms: _310  and  _311
REMARK  131  A    between atoms: _310  and  _313
REMARK  132  A    between atoms: _316  and  _318
REMARK  133  A    between atoms: _318  and  _319
REMARK  134  A    between atoms: _318  and  _321
REMARK  135  A    between atoms: _321  and  _322
REMARK  136  A    between atoms: _327  and  _328
REMARK                            x       y       z     vdW  Elec       q    Type
REMARK                         _______ _______ _______ _____ _____    ______ ____
ROOT
ATOM      1  O   HOH     1      45.558  12.270  10.048  0.00  0.00    +0.000 OA
ENDROOT
TORSDOF 0
REMARK  Name = ../refined-set-2016/4cr9/4cr9_pocket.pdb
REMARK  136 active torsions:
REMARK  status: ('A' for Active; 'I' for Inactive)
REMARK    1  A    between atoms: _1  and  _3
REMARK    2  A    between atoms: _3  and  _4
REMARK    3  A    between atoms: _3  and  _6
REMARK    4  A    between atoms: _9  and  _11
REMARK    5  A    between atoms: _11  and  _12
REMARK    6  A    between atoms: _11  and  _14
REMARK    7  A    between atoms: _16  and  _18
REMARK    8  A    between atoms: _18  and  _19
REMARK    9  A    between atoms: _22  and  _24
REMARK   10  A    between atoms: _24  and  _25
REMARK   11  A    between atoms: _24  and  _27
REMARK   12  A    between atoms: _27  and  _28
REMARK   13  A    between atoms: _33  and  _35
REMARK   14  A    between atoms: _35  and  _36
REMARK   15  A    between atoms: _39  and  _41
REMARK   16  A    between atoms: _41  and  _42
REMARK   17  A    between atoms: _41  and  _44
REMARK   18  A    between atoms: _44  and  _45
REMARK   19  A    between atoms: _48  and  _50
REMARK   20  A    between atoms: _50  and  _51
REMARK   21  A    between atoms: _50  and  _53
REMARK   22  A    between atoms: _56  and  _58
REMARK   23  A    between atoms: _58  and  _59
REMARK   24  A    between atoms: _58  and  _61
REMARK   25  A    between atoms: _61  and  _62
REMARK   26  A    between atoms: _67  and  _68
REMARK   27  A    between atoms: _70  and  _72
REMARK   28  A    between atoms: _72  and  _73
REMARK   29  A    between atoms: _72  and  _75
REMARK   30  A    between atoms: _75  and  _76
REMARK   31  A    between atoms: _76  and  _77
REMARK   32  A    between atoms: _77  and  _78
REMARK   33  A    between atoms: _78  and  _79
REMARK   34  A    between atoms: _83  and  _85
REMARK   35  A    between atoms: _85  and  _86
REMARK   36  A    between atoms: _85  and  _88
REMARK   37  A    between atoms: _88  and  _89
REMARK   38  A    between atoms: _92  and  _94
REMARK   39  A    between atoms: _94  and  _95
REMARK   40  A    between atoms: _94  and  _97
REMARK   41  A    between atoms: _97  and  _98
REMARK   42  A    between atoms: _103  and  _104
REMARK   43  A    between atoms: _106  and  _108
REMARK   44  A    between atoms: _108  and  _109
REMARK   45  A    between atoms: _112  and  _114
REMARK   46  A    between atoms: _114  and  _115
REMARK   47  A    between atoms: _114  and  _117
REMARK   48  A    between atoms: _117  and  _118
REMARK   49  A    between atoms: _118  and  _119
REMARK   50  A    between atoms: _119  and  _120
REMARK   51  A    between atoms: _120  and  _121
REMARK   52  A    between atoms: _125  and  _127
REMARK   53  A    between atoms: _127  and  _128
REMARK   54  A    between atoms: _127  and  _130
REMARK   55  A    between atoms: _130  and  _131
REMARK   56  A    between atoms: _134  and  _136
REMARK   57  A    between atoms: _136  and  _137
REMARK   58  A    between atoms: _140  and  _142
REMARK   59  A    between atoms: _142  and  _143
REMARK   60  A    between atoms: _142  and  _145
REMARK   61  A    between atoms: _145  and  _146
REMARK   62  A    between atoms: _146  and  _260
REMARK   63  A    between atoms: _147  and  _149
REMARK   64  A    between atoms: _149  and  _150
REMARK   65  A    between atoms: _149  and  _152
REMARK   66  A    between atoms: _152  and  _153
REMARK   67  A    between atoms: _153  and  _154
REMARK   68  A    between atoms: _154  and  _155
REMARK   69  A    between atoms: _155  and  _156
REMARK   70  A    between atoms: _160  and  _162
REMARK   71  A    between atoms: _162  and  _163
REMARK   72  A    between atoms: _165  and  _167
REMARK   73  A    between atoms: _167  and  _168
REMARK   74  A    between atoms: _167  and  _170
REMARK   75  A    between atoms: _170  and  _171
REMARK   76  A    between atoms: _174  and  _176
REMARK   77  A    between atoms: _176  and  _177
REMARK   78  A    between atoms: _176  and  _179
REMARK   79  A    between atoms: _179  and  _180
REMARK   80  A    between atoms: _182  and  _184
REMARK   81  A    between atoms: _184  and  _185
REMARK   82  A    between atoms: _187  and  _189
REMARK   83  A    between atoms: _189  and  _190
REMARK   84  A    between atoms: _192  and  _194
REMARK   85  A    between atoms: _194  and  _195
REMARK   86  A    between atoms: _194  and  _197
REMARK   87  A    between atoms: _197  and  _198
REMARK   88  A    between atoms: _201  and  _203
REMARK   89  A    between atoms: _203  and  _204
REMARK   90  A    between atoms: _203  and  _206
REMARK   91  A    between atoms: _206  and  _207
REMARK   92  A    between atoms: _210  and  _212
REMARK   93  A    between atoms: _212  and  _213
REMARK   94  A    between atoms: _212  and  _215
REMARK   95  A    between atoms: _215  and  _216
REMARK   96  A    between atoms: _218  and  _220
REMARK   97  A    between atoms: _220  and  _221
REMARK   98  A    between atoms: _220  and  _223
REMARK   99  A    between atoms: _223  and  _224
REMARK  100  A    between atoms: _234  and  _236
REMARK  101  A    between atoms: _236  and  _237
REMARK  102  A    between atoms: _239  and  _241
REMARK  103  A    between atoms: _241  and  _242
REMARK  104  A    between atoms: _241  and  _244
REMARK  105  A    between atoms: _244  and  _245
REMARK  106  A    between atoms: _245  and  _246
REMARK  107  A    between atoms: _249  and  _251
REMARK  108  A    between atoms: _251  and  _252
REMARK  109  A    between atoms: _254  and  _256
REMARK  110  A    between atoms: _256  and  _257
REMARK  111  A    between atoms: _256  and  _259
REMARK  112  A    between atoms: _259  and  _260
REMARK  113  A    between atoms: _261  and  _263
REMARK  114  A    between atoms: _263  and  _264
REMARK  115  A    between atoms: _267  and  _269
REMARK  116  A    between atoms: _269  and  _270
REMARK  117  A    between atoms: _269  and  _272
REMARK  118  A    between atoms: _272  and  _273
REMARK  119  A    between atoms: _273  and  _274
REMARK  120  A    between atoms: _279  and  _281
REMARK  121  A    between atoms: _281  and  _282
REMARK  122  A    between atoms: _281  and  _284
REMARK  123  A    between atoms: _284  and  _285
REMARK  124  A    between atoms: _285  and  _286
REMARK  125  A    between atoms: _286  and  _287
REMARK  126  A    between atoms: _297  and  _298
REMARK  127  A    between atoms: _303  and  _305
REMARK  128  A    between atoms: _305  and  _306
REMARK  129  A    between atoms: _308  and  _310
REMARK  130  A    between atoms: _310  and  _311
REMARK  131  A    between atoms: _310  and  _313
REMARK  132  A    between atoms: _316  and  _318
REMARK  133  A    between atoms: _318  and  _319
REMARK  134  A    between atoms: _318  and  _321
REMARK  135  A    between atoms: _321  and  _322
REMARK  136  A    between atoms: _327  and  _328
REMARK                            x       y       z     vdW  Elec       q    Type
REMARK                         _______ _______ _______ _____ _____    ______ ____
ROOT
ATOM      1  O   HOH     1      55.618  11.943  10.251  0.00  0.00    +0.000 OA
ENDROOT
TORSDOF 0
REMARK  Name = ../refined-set-2016/4cr9/4cr9_pocket.pdb
REMARK  136 active torsions:
REMARK  status: ('A' for Active; 'I' for Inactive)
REMARK    1  A    between atoms: _1  and  _3
REMARK    2  A    between atoms: _3  and  _4
REMARK    3  A    between atoms: _3  and  _6
REMARK    4  A    between atoms: _9  and  _11
REMARK    5  A    between atoms: _11  and  _12
REMARK    6  A    between atoms: _11  and  _14
REMARK    7  A    between atoms: _16  and  _18
REMARK    8  A    between atoms: _18  and  _19
REMARK    9  A    between atoms: _22  and  _24
REMARK   10  A    between atoms: _24  and  _25
REMARK   11  A    between atoms: _24  and  _27
REMARK   12  A    between atoms: _27  and  _28
REMARK   13  A    between atoms: _33  and  _35
REMARK   14  A    between atoms: _35  and  _36
REMARK   15  A    between atoms: _39  and  _41
REMARK   16  A    between atoms: _41  and  _42
REMARK   17  A    between atoms: _41  and  _44
REMARK   18  A    between atoms: _44  and  _45
REMARK   19  A    between atoms: _48  and  _50
REMARK   20  A    between atoms: _50  and  _51
REMARK   21  A    between atoms: _50  and  _53
REMARK   22  A    between atoms: _56  and  _58
REMARK   23  A    between atoms: _58  and  _59
REMARK   24  A    between atoms: _58  and  _61
REMARK   25  A    between atoms: _61  and  _62
REMARK   26  A    between atoms: _67  and  _68
REMARK   27  A    between atoms: _70  and  _72
REMARK   28  A    between atoms: _72  and  _73
REMARK   29  A    between atoms: _72  and  _75
REMARK   30  A    between atoms: _75  and  _76
REMARK   31  A    between atoms: _76  and  _77
REMARK   32  A    between atoms: _77  and  _78
REMARK   33  A    between atoms: _78  and  _79
REMARK   34  A    between atoms: _83  and  _85
REMARK   35  A    between atoms: _85  and  _86
REMARK   36  A    between atoms: _85  and  _88
REMARK   37  A    between atoms: _88  and  _89
REMARK   38  A    between atoms: _92  and  _94
REMARK   39  A    between atoms: _94  and  _95
REMARK   40  A    between atoms: _94  and  _97
REMARK   41  A    between atoms: _97  and  _98
REMARK   42  A    between atoms: _103  and  _104
REMARK   43  A    between atoms: _106  and  _108
REMARK   44  A    between atoms: _108  and  _109
REMARK   45  A    between atoms: _112  and  _114
REMARK   46  A    between atoms: _114  and  _115
REMARK   47  A    between atoms: _114  and  _117
REMARK   48  A    between atoms: _117  and  _118
REMARK   49  A    between atoms: _118  and  _119
REMARK   50  A    between atoms: _119  and  _120
REMARK   51  A    between atoms: _120  and  _121
REMARK   52  A    between atoms: _125  and  _127
REMARK   53  A    between atoms: _127  and  _128
REMARK   54  A    between atoms: _127  and  _130
REMARK   55  A    between atoms: _130  and  _131
REMARK   56  A    between atoms: _134  and  _136
REMARK   57  A    between atoms: _136  and  _137
REMARK   58  A    between atoms: _140  and  _142
REMARK   59  A    between atoms: _142  and  _143
REMARK   60  A    between atoms: _142  and  _145
REMARK   61  A    between atoms: _145  and  _146
REMARK   62  A    between atoms: _146  and  _260
REMARK   63  A    between atoms: _147  and  _149
REMARK   64  A    between atoms: _149  and  _150
REMARK   65  A    between atoms: _149  and  _152
REMARK   66  A    between atoms: _152  and  _153
REMARK   67  A    between atoms: _153  and  _154
REMARK   68  A    between atoms: _154  and  _155
REMARK   69  A    between atoms: _155  and  _156
REMARK   70  A    between atoms: _160  and  _162
REMARK   71  A    between atoms: _162  and  _163
REMARK   72  A    between atoms: _165  and  _167
REMARK   73  A    between atoms: _167  and  _168
REMARK   74  A    between atoms: _167  and  _170
REMARK   75  A    between atoms: _170  and  _171
REMARK   76  A    between atoms: _174  and  _176
REMARK   77  A    between atoms: _176  and  _177
REMARK   78  A    between atoms: _176  and  _179
REMARK   79  A    between atoms: _179  and  _180
REMARK   80  A    between atoms: _182  and  _184
REMARK   81  A    between atoms: _184  and  _185
REMARK   82  A    between atoms: _187  and  _189
REMARK   83  A    between atoms: _189  and  _190
REMARK   84  A    between atoms: _192  and  _194
REMARK   85  A    between atoms: _194  and  _195
REMARK   86  A    between atoms: _194  and  _197
REMARK   87  A    between atoms: _197  and  _198
REMARK   88  A    between atoms: _201  and  _203
REMARK   89  A    between atoms: _203  and  _204
REMARK   90  A    between atoms: _203  and  _206
REMARK   91  A    between atoms: _206  and  _207
REMARK   92  A    between atoms: _210  and  _212
REMARK   93  A    between atoms: _212  and  _213
REMARK   94  A    between atoms: _212  and  _215
REMARK   95  A    between atoms: _215  and  _216
REMARK   96  A    between atoms: _218  and  _220
REMARK   97  A    between atoms: _220  and  _221
REMARK   98  A    between atoms: _220  and  _223
REMARK   99  A    between atoms: _223  and  _224
REMARK  100  A    between atoms: _234  and  _236
REMARK  101  A    between atoms: _236  and  _237
REMARK  102  A    between atoms: _239  and  _241
REMARK  103  A    between atoms: _241  and  _242
REMARK  104  A    between atoms: _241  and  _244
REMARK  105  A    between atoms: _244  and  _245
REMARK  106  A    between atoms: _245  and  _246
REMARK  107  A    between atoms: _249  and  _251
REMARK  108  A    between atoms: _251  and  _252
REMARK  109  A    between atoms: _254  and  _256
REMARK  110  A    between atoms: _256  and  _257
REMARK  111  A    between atoms: _256  and  _259
REMARK  112  A    between atoms: _259  and  _260
REMARK  113  A    between atoms: _261  and  _263
REMARK  114  A    between atoms: _263  and  _264
REMARK  115  A    between atoms: _267  and  _269
REMARK  116  A    between atoms: _269  and  _270
REMARK  117  A    between atoms: _269  and  _272
REMARK  118  A    between atoms: _272  and  _273
REMARK  119  A    between atoms: _273  and  _274
REMARK  120  A    between atoms: _279  and  _281
REMARK  121  A    between atoms: _281  and  _282
REMARK  122  A    between atoms: _281  and  _284
REMARK  123  A    between atoms: _284  and  _285
REMARK  124  A    between atoms: _285  and  _286
REMARK  125  A    between atoms: _286  and  _287
REMARK  126  A    between atoms: _297  and  _298
REMARK  127  A    between atoms: _303  and  _305
REMARK  128  A    between atoms: _305  and  _306
REMARK  129  A    between atoms: _308  and  _310
REMARK  130  A    between atoms: _310  and  _311
REMARK  131  A    between atoms: _310  and  _313
REMARK  132  A    between atoms: _316  and  _318
REMARK  133  A    between atoms: _318  and  _319
REMARK  134  A    between atoms: _318  and  _321
REMARK  135  A    between atoms: _321  and  _322
REMARK  136  A    between atoms: _327  and  _328
REMARK                            x       y       z     vdW  Elec       q    Type
REMARK                         _______ _______ _______ _____ _____    ______ ____
ROOT
ATOM      1  O   HOH     1      55.550  21.176  15.043  0.00  0.00    +0.000 OA
ENDROOT
TORSDOF 0
REMARK  Name = ../refined-set-2016/4cr9/4cr9_pocket.pdb
REMARK  136 active torsions:
REMARK  status: ('A' for Active; 'I' for Inactive)
REMARK    1  A    between atoms: _1  and  _3
REMARK    2  A    between atoms: _3  and  _4
REMARK    3  A    between atoms: _3  and  _6
REMARK    4  A    between atoms: _9  and  _11
REMARK    5  A    between atoms: _11  and  _12
REMARK    6  A    between atoms: _11  and  _14
REMARK    7  A    between atoms: _16  and  _18
REMARK    8  A    between atoms: _18  and  _19
REMARK    9  A    between atoms: _22  and  _24
REMARK   10  A    between atoms: _24  and  _25
REMARK   11  A    between atoms: _24  and  _27
REMARK   12  A    between atoms: _27  and  _28
REMARK   13  A    between atoms: _33  and  _35
REMARK   14  A    between atoms: _35  and  _36
REMARK   15  A    between atoms: _39  and  _41
REMARK   16  A    between atoms: _41  and  _42
REMARK   17  A    between atoms: _41  and  _44
REMARK   18  A    between atoms: _44  and  _45
REMARK   19  A    between atoms: _48  and  _50
REMARK   20  A    between atoms: _50  and  _51
REMARK   21  A    between atoms: _50  and  _53
REMARK   22  A    between atoms: _56  and  _58
REMARK   23  A    between atoms: _58  and  _59
REMARK   24  A    between atoms: _58  and  _61
REMARK   25  A    between atoms: _61  and  _62
REMARK   26  A    between atoms: _67  and  _68
REMARK   27  A    between atoms: _70  and  _72
REMARK   28  A    between atoms: _72  and  _73
REMARK   29  A    between atoms: _72  and  _75
REMARK   30  A    between atoms: _75  and  _76
REMARK   31  A    between atoms: _76  and  _77
REMARK   32  A    between atoms: _77  and  _78
REMARK   33  A    between atoms: _78  and  _79
REMARK   34  A    between atoms: _83  and  _85
REMARK   35  A    between atoms: _85  and  _86
REMARK   36  A    between atoms: _85  and  _88
REMARK   37  A    between atoms: _88  and  _89
REMARK   38  A    between atoms: _92  and  _94
REMARK   39  A    between atoms: _94  and  _95
REMARK   40  A    between atoms: _94  and  _97
REMARK   41  A    between atoms: _97  and  _98
REMARK   42  A    between atoms: _103  and  _104
REMARK   43  A    between atoms: _106  and  _108
REMARK   44  A    between atoms: _108  and  _109
REMARK   45  A    between atoms: _112  and  _114
REMARK   46  A    between atoms: _114  and  _115
REMARK   47  A    between atoms: _114  and  _117
REMARK   48  A    between atoms: _117  and  _118
REMARK   49  A    between atoms: _118  and  _119
REMARK   50  A    between atoms: _119  and  _120
REMARK   51  A    between atoms: _120  and  _121
REMARK   52  A    between atoms: _125  and  _127
REMARK   53  A    between atoms: _127  and  _128
REMARK   54  A    between atoms: _127  and  _130
REMARK   55  A    between atoms: _130  and  _131
REMARK   56  A    between atoms: _134  and  _136
REMARK   57  A    between atoms: _136  and  _137
REMARK   58  A    between atoms: _140  and  _142
REMARK   59  A    between atoms: _142  and  _143
REMARK   60  A    between atoms: _142  and  _145
REMARK   61  A    between atoms: _145  and  _146
REMARK   62  A    between atoms: _146  and  _260
REMARK   63  A    between atoms: _147  and  _149
REMARK   64  A    between atoms: _149  and  _150
REMARK   65  A    between atoms: _149  and  _152
REMARK   66  A    between atoms: _152  and  _153
REMARK   67  A    between atoms: _153  and  _154
REMARK   68  A    between atoms: _154  and  _155
REMARK   69  A    between atoms: _155  and  _156
REMARK   70  A    between atoms: _160  and  _162
REMARK   71  A    between atoms: _162  and  _163
REMARK   72  A    between atoms: _165  and  _167
REMARK   73  A    between atoms: _167  and  _168
REMARK   74  A    between atoms: _167  and  _170
REMARK   75  A    between atoms: _170  and  _171
REMARK   76  A    between atoms: _174  and  _176
REMARK   77  A    between atoms: _176  and  _177
REMARK   78  A    between atoms: _176  and  _179
REMARK   79  A    between atoms: _179  and  _180
REMARK   80  A    between atoms: _182  and  _184
REMARK   81  A    between atoms: _184  and  _185
REMARK   82  A    between atoms: _187  and  _189
REMARK   83  A    between atoms: _189  and  _190
REMARK   84  A    between atoms: _192  and  _194
REMARK   85  A    between atoms: _194  and  _195
REMARK   86  A    between atoms: _194  and  _197
REMARK   87  A    between atoms: _197  and  _198
REMARK   88  A    between atoms: _201  and  _203
REMARK   89  A    between atoms: _203  and  _204
REMARK   90  A    between atoms: _203  and  _206
REMARK   91  A    between atoms: _206  and  _207
REMARK   92  A    between atoms: _210  and  _212
REMARK   93  A    between atoms: _212  and  _213
REMARK   94  A    between atoms: _212  and  _215
REMARK   95  A    between atoms: _215  and  _216
REMARK   96  A    between atoms: _218  and  _220
REMARK   97  A    between atoms: _220  and  _221
REMARK   98  A    between atoms: _220  and  _223
REMARK   99  A    between atoms: _223  and  _224
REMARK  100  A    between atoms: _234  and  _236
REMARK  101  A    between atoms: _236  and  _237
REMARK  102  A    between atoms: _239  and  _241
REMARK  103  A    between atoms: _241  and  _242
REMARK  104  A    between atoms: _241  and  _244
REMARK  105  A    between atoms: _244  and  _245
REMARK  106  A    between atoms: _245  and  _246
REMARK  107  A    between atoms: _249  and  _251
REMARK  108  A    between atoms: _251  and  _252
REMARK  109  A    between atoms: _254  and  _256
REMARK  110  A    between atoms: _256  and  _257
REMARK  111  A    between atoms: _256  and  _259
REMARK  112  A    between atoms: _259  and  _260
REMARK  113  A    between atoms: _261  and  _263
REMARK  114  A    between atoms: _263  and  _264
REMARK  115  A    between atoms: _267  and  _269
REMARK  116  A    between atoms: _269  and  _270
REMARK  117  A    between atoms: _269  and  _272
REMARK  118  A    between atoms: _272  and  _273
REMARK  119  A    between atoms: _273  and  _274
REMARK  120  A    between atoms: _279  and  _281
REMARK  121  A    between atoms: _281  and  _282
REMARK  122  A    between atoms: _281  and  _284
REMARK  123  A    between atoms: _284  and  _285
REMARK  124  A    between atoms: _285  and  _286
REMARK  125  A    between atoms: _286  and  _287
REMARK  126  A    between atoms: _297  and  _298
REMARK  127  A    between atoms: _303  and  _305
REMARK  128  A    between atoms: _305  and  _306
REMARK  129  A    between atoms: _308  and  _310
REMARK  130  A    between atoms: _310  and  _311
REMARK  131  A    between atoms: _310  and  _313
REMARK  132  A    between atoms: _316  and  _318
REMARK  133  A    between atoms: _318  and  _319
REMARK  134  A    between atoms: _318  and  _321
REMARK  135  A    between atoms: _321  and  _322
REMARK  136  A    between atoms: _327  and  _328
REMARK                            x       y       z     vdW  Elec       q    Type
REMARK                         _______ _______ _______ _____ _____    ______ ____
ROOT
ATOM      1  O   HOH     1      57.360  20.561  11.236  0.00  0.00    +0.000 OA
ENDROOT
TORSDOF 0
REMARK  Name = ../refined-set-2016/4cr9/4cr9_pocket.pdb
REMARK  136 active torsions:
REMARK  status: ('A' for Active; 'I' for Inactive)
REMARK    1  A    between atoms: _1  and  _3
REMARK    2  A    between atoms: _3  and  _4
REMARK    3  A    between atoms: _3  and  _6
REMARK    4  A    between atoms: _9  and  _11
REMARK    5  A    between atoms: _11  and  _12
REMARK    6  A    between atoms: _11  and  _14
REMARK    7  A    between atoms: _16  and  _18
REMARK    8  A    between atoms: _18  and  _19
REMARK    9  A    between atoms: _22  and  _24
REMARK   10  A    between atoms: _24  and  _25
REMARK   11  A    between atoms: _24  and  _27
REMARK   12  A    between atoms: _27  and  _28
REMARK   13  A    between atoms: _33  and  _35
REMARK   14  A    between atoms: _35  and  _36
REMARK   15  A    between atoms: _39  and  _41
REMARK   16  A    between atoms: _41  and  _42
REMARK   17  A    between atoms: _41  and  _44
REMARK   18  A    between atoms: _44  and  _45
REMARK   19  A    between atoms: _48  and  _50
REMARK   20  A    between atoms: _50  and  _51
REMARK   21  A    between atoms: _50  and  _53
REMARK   22  A    between atoms: _56  and  _58
REMARK   23  A    between atoms: _58  and  _59
REMARK   24  A    between atoms: _58  and  _61
REMARK   25  A    between atoms: _61  and  _62
REMARK   26  A    between atoms: _67  and  _68
REMARK   27  A    between atoms: _70  and  _72
REMARK   28  A    between atoms: _72  and  _73
REMARK   29  A    between atoms: _72  and  _75
REMARK   30  A    between atoms: _75  and  _76
REMARK   31  A    between atoms: _76  and  _77
REMARK   32  A    between atoms: _77  and  _78
REMARK   33  A    between atoms: _78  and  _79
REMARK   34  A    between atoms: _83  and  _85
REMARK   35  A    between atoms: _85  and  _86
REMARK   36  A    between atoms: _85  and  _88
REMARK   37  A    between atoms: _88  and  _89
REMARK   38  A    between atoms: _92  and  _94
REMARK   39  A    between atoms: _94  and  _95
REMARK   40  A    between atoms: _94  and  _97
REMARK   41  A    between atoms: _97  and  _98
REMARK   42  A    between atoms: _103  and  _104
REMARK   43  A    between atoms: _106  and  _108
REMARK   44  A    between atoms: _108  and  _109
REMARK   45  A    between atoms: _112  and  _114
REMARK   46  A    between atoms: _114  and  _115
REMARK   47  A    between atoms: _114  and  _117
REMARK   48  A    between atoms: _117  and  _118
REMARK   49  A    between atoms: _118  and  _119
REMARK   50  A    between atoms: _119  and  _120
REMARK   51  A    between atoms: _120  and  _121
REMARK   52  A    between atoms: _125  and  _127
REMARK   53  A    between atoms: _127  and  _128
REMARK   54  A    between atoms: _127  and  _130
REMARK   55  A    between atoms: _130  and  _131
REMARK   56  A    between atoms: _134  and  _136
REMARK   57  A    between atoms: _136  and  _137
REMARK   58  A    between atoms: _140  and  _142
REMARK   59  A    between atoms: _142  and  _143
REMARK   60  A    between atoms: _142  and  _145
REMARK   61  A    between atoms: _145  and  _146
REMARK   62  A    between atoms: _146  and  _260
REMARK   63  A    between atoms: _147  and  _149
REMARK   64  A    between atoms: _149  and  _150
REMARK   65  A    between atoms: _149  and  _152
REMARK   66  A    between atoms: _152  and  _153
REMARK   67  A    between atoms: _153  and  _154
REMARK   68  A    between atoms: _154  and  _155
REMARK   69  A    between atoms: _155  and  _156
REMARK   70  A    between atoms: _160  and  _162
REMARK   71  A    between atoms: _162  and  _163
REMARK   72  A    between atoms: _165  and  _167
REMARK   73  A    between atoms: _167  and  _168
REMARK   74  A    between atoms: _167  and  _170
REMARK   75  A    between atoms: _170  and  _171
REMARK   76  A    between atoms: _174  and  _176
REMARK   77  A    between atoms: _176  and  _177
REMARK   78  A    between atoms: _176  and  _179
REMARK   79  A    between atoms: _179  and  _180
REMARK   80  A    between atoms: _182  and  _184
REMARK   81  A    between atoms: _184  and  _185
REMARK   82  A    between atoms: _187  and  _189
REMARK   83  A    between atoms: _189  and  _190
REMARK   84  A    between atoms: _192  and  _194
REMARK   85  A    between atoms: _194  and  _195
REMARK   86  A    between atoms: _194  and  _197
REMARK   87  A    between atoms: _197  and  _198
REMARK   88  A    between atoms: _201  and  _203
REMARK   89  A    between atoms: _203  and  _204
REMARK   90  A    between atoms: _203  and  _206
REMARK   91  A    between atoms: _206  and  _207
REMARK   92  A    between atoms: _210  and  _212
REMARK   93  A    between atoms: _212  and  _213
REMARK   94  A    between atoms: _212  and  _215
REMARK   95  A    between atoms: _215  and  _216
REMARK   96  A    between atoms: _218  and  _220
REMARK   97  A    between atoms: _220  and  _221
REMARK   98  A    between atoms: _220  and  _223
REMARK   99  A    between atoms: _223  and  _224
REMARK  100  A    between atoms: _234  and  _236
REMARK  101  A    between atoms: _236  and  _237
REMARK  102  A    between atoms: _239  and  _241
REMARK  103  A    between atoms: _241  and  _242
REMARK  104  A    between atoms: _241  and  _244
REMARK  105  A    between atoms: _244  and  _245
REMARK  106  A    between atoms: _245  and  _246
REMARK  107  A    between atoms: _249  and  _251
REMARK  108  A    between atoms: _251  and  _252
REMARK  109  A    between atoms: _254  and  _256
REMARK  110  A    between atoms: _256  and  _257
REMARK  111  A    between atoms: _256  and  _259
REMARK  112  A    between atoms: _259  and  _260
REMARK  113  A    between atoms: _261  and  _263
REMARK  114  A    between atoms: _263  and  _264
REMARK  115  A    between atoms: _267  and  _269
REMARK  116  A    between atoms: _269  and  _270
REMARK  117  A    between atoms: _269  and  _272
REMARK  118  A    between atoms: _272  and  _273
REMARK  119  A    between atoms: _273  and  _274
REMARK  120  A    between atoms: _279  and  _281
REMARK  121  A    between atoms: _281  and  _282
REMARK  122  A    between atoms: _281  and  _284
REMARK  123  A    between atoms: _284  and  _285
REMARK  124  A    between atoms: _285  and  _286
REMARK  125  A    between atoms: _286  and  _287
REMARK  126  A    between atoms: _297  and  _298
REMARK  127  A    between atoms: _303  and  _305
REMARK  128  A    between atoms: _305  and  _306
REMARK  129  A    between atoms: _308  and  _310
REMARK  130  A    between atoms: _310  and  _311
REMARK  131  A    between atoms: _310  and  _313
REMARK  132  A    between atoms: _316  and  _318
REMARK  133  A    between atoms: _318  and  _319
REMARK  134  A    between atoms: _318  and  _321
REMARK  135  A    between atoms: _321  and  _322
REMARK  136  A    between atoms: _327  and  _328
REMARK                            x       y       z     vdW  Elec       q    Type
REMARK                         _______ _______ _______ _____ _____    ______ ____
ROOT
ATOM      1  O   HOH     1      53.744  24.485  14.806  0.00  0.00    +0.000 OA
ENDROOT
TORSDOF 0
