REMARK  Name = ../refined-set-2016/2q63/2q63_pocket.pdb
REMARK  225 active torsions:
REMARK  status: ('A' for Active; 'I' for Inactive)
REMARK    1  A    between atoms: _1  and  _3
REMARK    2  A    between atoms: _3  and  _4
REMARK    3  A    between atoms: _3  and  _6
REMARK    4  A    between atoms: _6  and  _7
REMARK    5  A    between atoms: _7  and  _8
REMARK    6  A    between atoms: _8  and  _9
REMARK    7  A    between atoms: _18  and  _20
REMARK    8  A    between atoms: _20  and  _21
REMARK    9  A    between atoms: _20  and  _23
REMARK   10  A    between atoms: _23  and  _24
REMARK   11  A    between atoms: _27  and  _29
REMARK   12  A    between atoms: _29  and  _30
REMARK   13  A    between atoms: _29  and  _32
REMARK   14  A    between atoms: _32  and  _33
REMARK   15  A    between atoms: _36  and  _38
REMARK   16  A    between atoms: _38  and  _39
REMARK   17  A    between atoms: _38  and  _41
REMARK   18  A    between atoms: _41  and  _42
REMARK   19  A    between atoms: _45  and  _47
REMARK   20  A    between atoms: _47  and  _48
REMARK   21  A    between atoms: _47  and  _50
REMARK   22  A    between atoms: _50  and  _51
REMARK   23  A    between atoms: _54  and  _56
REMARK   24  A    between atoms: _56  and  _57
REMARK   25  A    between atoms: _59  and  _61
REMARK   26  A    between atoms: _61  and  _62
REMARK   27  A    between atoms: _65  and  _67
REMARK   28  A    between atoms: _67  and  _68
REMARK   29  A    between atoms: _67  and  _70
REMARK   30  A    between atoms: _70  and  _71
REMARK   31  A    between atoms: _74  and  _76
REMARK   32  A    between atoms: _76  and  _77
REMARK   33  A    between atoms: _76  and  _79
REMARK   34  A    between atoms: _79  and  _80
REMARK   35  A    between atoms: _85  and  _87
REMARK   36  A    between atoms: _87  and  _88
REMARK   37  A    between atoms: _87  and  _90
REMARK   38  A    between atoms: _90  and  _91
REMARK   39  A    between atoms: _94  and  _96
REMARK   40  A    between atoms: _96  and  _97
REMARK   41  A    between atoms: _96  and  _99
REMARK   42  A    between atoms: _102  and  _104
REMARK   43  A    between atoms: _104  and  _105
REMARK   44  A    between atoms: _104  and  _107
REMARK   45  A    between atoms: _107  and  _108
REMARK   46  A    between atoms: _108  and  _109
REMARK   47  A    between atoms: _109  and  _110
REMARK   48  A    between atoms: _110  and  _111
REMARK   49  A    between atoms: _115  and  _117
REMARK   50  A    between atoms: _117  and  _118
REMARK   51  A    between atoms: _117  and  _120
REMARK   52  A    between atoms: _120  and  _121
REMARK   53  A    between atoms: _124  and  _126
REMARK   54  A    between atoms: _126  and  _127
REMARK   55  A    between atoms: _129  and  _131
REMARK   56  A    between atoms: _131  and  _132
REMARK   57  A    between atoms: _134  and  _136
REMARK   58  A    between atoms: _136  and  _137
REMARK   59  A    between atoms: _136  and  _139
REMARK   60  A    between atoms: _139  and  _140
REMARK   61  A    between atoms: _143  and  _145
REMARK   62  A    between atoms: _145  and  _146
REMARK   63  A    between atoms: _148  and  _150
REMARK   64  A    between atoms: _150  and  _151
REMARK   65  A    between atoms: _153  and  _155
REMARK   66  A    between atoms: _155  and  _156
REMARK   67  A    between atoms: _155  and  _158
REMARK   68  A    between atoms: _158  and  _159
REMARK   69  A    between atoms: _162  and  _164
REMARK   70  A    between atoms: _164  and  _165
REMARK   71  A    between atoms: _164  and  _167
REMARK   72  A    between atoms: _167  and  _168
REMARK   73  A    between atoms: _172  and  _173
REMARK   74  A    between atoms: _178  and  _180
REMARK   75  A    between atoms: _180  and  _181
REMARK   76  A    between atoms: _180  and  _183
REMARK   77  A    between atoms: _183  and  _184
REMARK   78  A    between atoms: _188  and  _189
REMARK   79  A    between atoms: _194  and  _196
REMARK   80  A    between atoms: _196  and  _197
REMARK   81  A    between atoms: _196  and  _199
REMARK   82  A    between atoms: _202  and  _204
REMARK   83  A    between atoms: _204  and  _205
REMARK   84  A    between atoms: _204  and  _207
REMARK   85  A    between atoms: _207  and  _208
REMARK   86  A    between atoms: _213  and  _215
REMARK   87  A    between atoms: _215  and  _216
REMARK   88  A    between atoms: _215  and  _218
REMARK   89  A    between atoms: _218  and  _219
REMARK   90  A    between atoms: _222  and  _224
REMARK   91  A    between atoms: _224  and  _225
REMARK   92  A    between atoms: _224  and  _227
REMARK   93  A    between atoms: _227  and  _228
REMARK   94  A    between atoms: _231  and  _233
REMARK   95  A    between atoms: _233  and  _234
REMARK   96  A    between atoms: _236  and  _238
REMARK   97  A    between atoms: _238  and  _239
REMARK   98  A    between atoms: _238  and  _241
REMARK   99  A    between atoms: _241  and  _242
REMARK  100  A    between atoms: _242  and  _243
REMARK  101  A    between atoms: _243  and  _244
REMARK  102  A    between atoms: _253  and  _255
REMARK  103  A    between atoms: _255  and  _256
REMARK  104  A    between atoms: _255  and  _258
REMARK  105  A    between atoms: _258  and  _259
REMARK  106  A    between atoms: _264  and  _266
REMARK  107  A    between atoms: _266  and  _267
REMARK  108  A    between atoms: _266  and  _269
REMARK  109  A    between atoms: _269  and  _270
REMARK  110  A    between atoms: _270  and  _271
REMARK  111  A    between atoms: _271  and  _272
REMARK  112  A    between atoms: _281  and  _283
REMARK  113  A    between atoms: _283  and  _284
REMARK  114  A    between atoms: _283  and  _286
REMARK  115  A    between atoms: _286  and  _287
REMARK  116  A    between atoms: _290  and  _292
REMARK  117  A    between atoms: _292  and  _293
REMARK  118  A    between atoms: _292  and  _295
REMARK  119  A    between atoms: _295  and  _296
REMARK  120  A    between atoms: _299  and  _301
REMARK  121  A    between atoms: _301  and  _302
REMARK  122  A    between atoms: _301  and  _304
REMARK  123  A    between atoms: _304  and  _305
REMARK  124  A    between atoms: _308  and  _310
REMARK  125  A    between atoms: _310  and  _311
REMARK  126  A    between atoms: _310  and  _313
REMARK  127  A    between atoms: _313  and  _314
REMARK  128  A    between atoms: _317  and  _319
REMARK  129  A    between atoms: _319  and  _320
REMARK  130  A    between atoms: _319  and  _322
REMARK  131  A    between atoms: _322  and  _323
REMARK  132  A    between atoms: _326  and  _328
REMARK  133  A    between atoms: _328  and  _329
REMARK  134  A    between atoms: _331  and  _333
REMARK  135  A    between atoms: _333  and  _334
REMARK  136  A    between atoms: _337  and  _339
REMARK  137  A    between atoms: _339  and  _340
REMARK  138  A    between atoms: _339  and  _342
REMARK  139  A    between atoms: _342  and  _343
REMARK  140  A    between atoms: _346  and  _348
REMARK  141  A    between atoms: _348  and  _349
REMARK  142  A    between atoms: _348  and  _351
REMARK  143  A    between atoms: _351  and  _352
REMARK  144  A    between atoms: _357  and  _359
REMARK  145  A    between atoms: _359  and  _360
REMARK  146  A    between atoms: _359  and  _362
REMARK  147  A    between atoms: _362  and  _363
REMARK  148  A    between atoms: _366  and  _368
REMARK  149  A    between atoms: _368  and  _369
REMARK  150  A    between atoms: _368  and  _371
REMARK  151  A    between atoms: _374  and  _376
REMARK  152  A    between atoms: _376  and  _377
REMARK  153  A    between atoms: _376  and  _379
REMARK  154  A    between atoms: _379  and  _380
REMARK  155  A    between atoms: _380  and  _381
REMARK  156  A    between atoms: _381  and  _382
REMARK  157  A    between atoms: _382  and  _383
REMARK  158  A    between atoms: _387  and  _389
REMARK  159  A    between atoms: _389  and  _390
REMARK  160  A    between atoms: _389  and  _392
REMARK  161  A    between atoms: _392  and  _393
REMARK  162  A    between atoms: _393  and  _394
REMARK  163  A    between atoms: _396  and  _398
REMARK  164  A    between atoms: _398  and  _399
REMARK  165  A    between atoms: _398  and  _401
REMARK  166  A    between atoms: _401  and  _402
REMARK  167  A    between atoms: _405  and  _407
REMARK  168  A    between atoms: _407  and  _408
REMARK  169  A    between atoms: _410  and  _412
REMARK  170  A    between atoms: _412  and  _413
REMARK  171  A    between atoms: _415  and  _417
REMARK  172  A    between atoms: _417  and  _418
REMARK  173  A    between atoms: _417  and  _420
REMARK  174  A    between atoms: _420  and  _421
REMARK  175  A    between atoms: _424  and  _426
REMARK  176  A    between atoms: _426  and  _427
REMARK  177  A    between atoms: _429  and  _431
REMARK  178  A    between atoms: _431  and  _432
REMARK  179  A    between atoms: _434  and  _436
REMARK  180  A    between atoms: _436  and  _437
REMARK  181  A    between atoms: _436  and  _439
REMARK  182  A    between atoms: _439  and  _440
REMARK  183  A    between atoms: _446  and  _448
REMARK  184  A    between atoms: _448  and  _449
REMARK  185  A    between atoms: _448  and  _451
REMARK  186  A    between atoms: _451  and  _452
REMARK  187  A    between atoms: _455  and  _457
REMARK  188  A    between atoms: _457  and  _458
REMARK  189  A    between atoms: _457  and  _460
REMARK  190  A    between atoms: _463  and  _465
REMARK  191  A    between atoms: _465  and  _466
REMARK  192  A    between atoms: _465  and  _468
REMARK  193  A    between atoms: _468  and  _469
REMARK  194  A    between atoms: _472  and  _474
REMARK  195  A    between atoms: _474  and  _475
REMARK  196  A    between atoms: _474  and  _477
REMARK  197  A    between atoms: _477  and  _478
REMARK  198  A    between atoms: _482  and  _483
REMARK  199  A    between atoms: _488  and  _490
REMARK  200  A    between atoms: _490  and  _491
REMARK  201  A    between atoms: _490  and  _493
REMARK  202  A    between atoms: _496  and  _498
REMARK  203  A    between atoms: _498  and  _499
REMARK  204  A    between atoms: _498  and  _501
REMARK  205  A    between atoms: _501  and  _502
REMARK  206  A    between atoms: _507  and  _509
REMARK  207  A    between atoms: _509  and  _510
REMARK  208  A    between atoms: _509  and  _512
REMARK  209  A    between atoms: _512  and  _513
REMARK  210  A    between atoms: _516  and  _518
REMARK  211  A    between atoms: _518  and  _519
REMARK  212  A    between atoms: _518  and  _521
REMARK  213  A    between atoms: _521  and  _522
REMARK  214  A    between atoms: _525  and  _527
REMARK  215  A    between atoms: _527  and  _528
REMARK  216  A    between atoms: _530  and  _532
REMARK  217  A    between atoms: _532  and  _533
REMARK  218  A    between atoms: _532  and  _535
REMARK  219  A    between atoms: _535  and  _536
REMARK  220  A    between atoms: _536  and  _537
REMARK  221  A    between atoms: _537  and  _538
REMARK  222  A    between atoms: _547  and  _549
REMARK  223  A    between atoms: _549  and  _550
REMARK  224  A    between atoms: _549  and  _552
REMARK  225  A    between atoms: _552  and  _553
REMARK                            x       y       z     vdW  Elec       q    Type
REMARK                         _______ _______ _______ _____ _____    ______ ____
ROOT
ATOM      1  NE  ARG A   1      -9.319  62.389   9.605  0.00  0.00    -0.265 N 
ATOM      2  HE  ARG A   1      -9.133  61.835  10.466  0.00  0.00    +0.259 HD
ATOM      3  CZ  ARG A   1     -10.578  62.482   9.180  0.00  0.00    +0.342 C 
ATOM      4  NH2 ARG A   1     -11.553  61.875   9.856  0.00  0.00    -0.292 N 
ATOM      5 HH21 ARG A   1     -11.330  61.330  10.713  0.00  0.00    +0.255 HD
ATOM      6 HH22 ARG A   1     -12.537  61.946   9.526  0.00  0.00    +0.255 HD
ATOM      7  NH1 ARG A   1     -10.861  63.161   8.065  0.00  0.00    -0.292 N 
ATOM      8 HH11 ARG A   1     -11.845  63.232   7.735  0.00  0.00    +0.255 HD
ATOM      9 HH12 ARG A   1     -10.098  63.618   7.527  0.00  0.00    +0.255 HD
ENDROOT
BRANCH   1  10
ATOM     10  CD  ARG A   1      -8.184  63.018   8.935  0.00  0.00    +0.174 C 
BRANCH  10  11
ATOM     11  CG  ARG A   1      -6.878  62.481   9.467  0.00  0.00    +0.045 C 
BRANCH  11  12
ATOM     12  CB  ARG A   1      -5.733  62.979   8.641  0.00  0.00    +0.029 C 
BRANCH  12  13
ATOM     13  CA  ARG A   1      -4.387  62.385   9.038  0.00  0.00    +0.133 C 
BRANCH  13  14
ATOM     14  N   ARG A   1      -3.983  62.807  10.380  0.00  0.00    -0.239 NA
ATOM     15  H   ARG A   1      -4.609  63.417  10.943  0.00  0.00    +0.142 HD
ENDBRANCH  13  14
BRANCH  13  16
ATOM     16  C   ARG A   1      -3.323  62.778   8.010  0.00  0.00    +0.224 C 
ATOM     17  O   ARG A   1      -2.742  63.872   8.110  0.00  0.00    -0.287 OA
ENDBRANCH  13  16
ENDBRANCH  12  13
ENDBRANCH  11  12
ENDBRANCH  10  11
ENDBRANCH   1  10
TORSDOF 6
REMARK  Name = ../refined-set-2016/2q63/2q63_pocket.pdb
REMARK  225 active torsions:
REMARK  status: ('A' for Active; 'I' for Inactive)
REMARK    1  A    between atoms: _1  and  _3
REMARK    2  A    between atoms: _3  and  _4
REMARK    3  A    between atoms: _3  and  _6
REMARK    4  A    between atoms: _6  and  _7
REMARK    5  A    between atoms: _7  and  _8
REMARK    6  A    between atoms: _8  and  _9
REMARK    7  A    between atoms: _18  and  _20
REMARK    8  A    between atoms: _20  and  _21
REMARK    9  A    between atoms: _20  and  _23
REMARK   10  A    between atoms: _23  and  _24
REMARK   11  A    between atoms: _27  and  _29
REMARK   12  A    between atoms: _29  and  _30
REMARK   13  A    between atoms: _29  and  _32
REMARK   14  A    between atoms: _32  and  _33
REMARK   15  A    between atoms: _36  and  _38
REMARK   16  A    between atoms: _38  and  _39
REMARK   17  A    between atoms: _38  and  _41
REMARK   18  A    between atoms: _41  and  _42
REMARK   19  A    between atoms: _45  and  _47
REMARK   20  A    between atoms: _47  and  _48
REMARK   21  A    between atoms: _47  and  _50
REMARK   22  A    between atoms: _50  and  _51
REMARK   23  A    between atoms: _54  and  _56
REMARK   24  A    between atoms: _56  and  _57
REMARK   25  A    between atoms: _59  and  _61
REMARK   26  A    between atoms: _61  and  _62
REMARK   27  A    between atoms: _65  and  _67
REMARK   28  A    between atoms: _67  and  _68
REMARK   29  A    between atoms: _67  and  _70
REMARK   30  A    between atoms: _70  and  _71
REMARK   31  A    between atoms: _74  and  _76
REMARK   32  A    between atoms: _76  and  _77
REMARK   33  A    between atoms: _76  and  _79
REMARK   34  A    between atoms: _79  and  _80
REMARK   35  A    between atoms: _85  and  _87
REMARK   36  A    between atoms: _87  and  _88
REMARK   37  A    between atoms: _87  and  _90
REMARK   38  A    between atoms: _90  and  _91
REMARK   39  A    between atoms: _94  and  _96
REMARK   40  A    between atoms: _96  and  _97
REMARK   41  A    between atoms: _96  and  _99
REMARK   42  A    between atoms: _102  and  _104
REMARK   43  A    between atoms: _104  and  _105
REMARK   44  A    between atoms: _104  and  _107
REMARK   45  A    between atoms: _107  and  _108
REMARK   46  A    between atoms: _108  and  _109
REMARK   47  A    between atoms: _109  and  _110
REMARK   48  A    between atoms: _110  and  _111
REMARK   49  A    between atoms: _115  and  _117
REMARK   50  A    between atoms: _117  and  _118
REMARK   51  A    between atoms: _117  and  _120
REMARK   52  A    between atoms: _120  and  _121
REMARK   53  A    between atoms: _124  and  _126
REMARK   54  A    between atoms: _126  and  _127
REMARK   55  A    between atoms: _129  and  _131
REMARK   56  A    between atoms: _131  and  _132
REMARK   57  A    between atoms: _134  and  _136
REMARK   58  A    between atoms: _136  and  _137
REMARK   59  A    between atoms: _136  and  _139
REMARK   60  A    between atoms: _139  and  _140
REMARK   61  A    between atoms: _143  and  _145
REMARK   62  A    between atoms: _145  and  _146
REMARK   63  A    between atoms: _148  and  _150
REMARK   64  A    between atoms: _150  and  _151
REMARK   65  A    between atoms: _153  and  _155
REMARK   66  A    between atoms: _155  and  _156
REMARK   67  A    between atoms: _155  and  _158
REMARK   68  A    between atoms: _158  and  _159
REMARK   69  A    between atoms: _162  and  _164
REMARK   70  A    between atoms: _164  and  _165
REMARK   71  A    between atoms: _164  and  _167
REMARK   72  A    between atoms: _167  and  _168
REMARK   73  A    between atoms: _172  and  _173
REMARK   74  A    between atoms: _178  and  _180
REMARK   75  A    between atoms: _180  and  _181
REMARK   76  A    between atoms: _180  and  _183
REMARK   77  A    between atoms: _183  and  _184
REMARK   78  A    between atoms: _188  and  _189
REMARK   79  A    between atoms: _194  and  _196
REMARK   80  A    between atoms: _196  and  _197
REMARK   81  A    between atoms: _196  and  _199
REMARK   82  A    between atoms: _202  and  _204
REMARK   83  A    between atoms: _204  and  _205
REMARK   84  A    between atoms: _204  and  _207
REMARK   85  A    between atoms: _207  and  _208
REMARK   86  A    between atoms: _213  and  _215
REMARK   87  A    between atoms: _215  and  _216
REMARK   88  A    between atoms: _215  and  _218
REMARK   89  A    between atoms: _218  and  _219
REMARK   90  A    between atoms: _222  and  _224
REMARK   91  A    between atoms: _224  and  _225
REMARK   92  A    between atoms: _224  and  _227
REMARK   93  A    between atoms: _227  and  _228
REMARK   94  A    between atoms: _231  and  _233
REMARK   95  A    between atoms: _233  and  _234
REMARK   96  A    between atoms: _236  and  _238
REMARK   97  A    between atoms: _238  and  _239
REMARK   98  A    between atoms: _238  and  _241
REMARK   99  A    between atoms: _241  and  _242
REMARK  100  A    between atoms: _242  and  _243
REMARK  101  A    between atoms: _243  and  _244
REMARK  102  A    between atoms: _253  and  _255
REMARK  103  A    between atoms: _255  and  _256
REMARK  104  A    between atoms: _255  and  _258
REMARK  105  A    between atoms: _258  and  _259
REMARK  106  A    between atoms: _264  and  _266
REMARK  107  A    between atoms: _266  and  _267
REMARK  108  A    between atoms: _266  and  _269
REMARK  109  A    between atoms: _269  and  _270
REMARK  110  A    between atoms: _270  and  _271
REMARK  111  A    between atoms: _271  and  _272
REMARK  112  A    between atoms: _281  and  _283
REMARK  113  A    between atoms: _283  and  _284
REMARK  114  A    between atoms: _283  and  _286
REMARK  115  A    between atoms: _286  and  _287
REMARK  116  A    between atoms: _290  and  _292
REMARK  117  A    between atoms: _292  and  _293
REMARK  118  A    between atoms: _292  and  _295
REMARK  119  A    between atoms: _295  and  _296
REMARK  120  A    between atoms: _299  and  _301
REMARK  121  A    between atoms: _301  and  _302
REMARK  122  A    between atoms: _301  and  _304
REMARK  123  A    between atoms: _304  and  _305
REMARK  124  A    between atoms: _308  and  _310
REMARK  125  A    between atoms: _310  and  _311
REMARK  126  A    between atoms: _310  and  _313
REMARK  127  A    between atoms: _313  and  _314
REMARK  128  A    between atoms: _317  and  _319
REMARK  129  A    between atoms: _319  and  _320
REMARK  130  A    between atoms: _319  and  _322
REMARK  131  A    between atoms: _322  and  _323
REMARK  132  A    between atoms: _326  and  _328
REMARK  133  A    between atoms: _328  and  _329
REMARK  134  A    between atoms: _331  and  _333
REMARK  135  A    between atoms: _333  and  _334
REMARK  136  A    between atoms: _337  and  _339
REMARK  137  A    between atoms: _339  and  _340
REMARK  138  A    between atoms: _339  and  _342
REMARK  139  A    between atoms: _342  and  _343
REMARK  140  A    between atoms: _346  and  _348
REMARK  141  A    between atoms: _348  and  _349
REMARK  142  A    between atoms: _348  and  _351
REMARK  143  A    between atoms: _351  and  _352
REMARK  144  A    between atoms: _357  and  _359
REMARK  145  A    between atoms: _359  and  _360
REMARK  146  A    between atoms: _359  and  _362
REMARK  147  A    between atoms: _362  and  _363
REMARK  148  A    between atoms: _366  and  _368
REMARK  149  A    between atoms: _368  and  _369
REMARK  150  A    between atoms: _368  and  _371
REMARK  151  A    between atoms: _374  and  _376
REMARK  152  A    between atoms: _376  and  _377
REMARK  153  A    between atoms: _376  and  _379
REMARK  154  A    between atoms: _379  and  _380
REMARK  155  A    between atoms: _380  and  _381
REMARK  156  A    between atoms: _381  and  _382
REMARK  157  A    between atoms: _382  and  _383
REMARK  158  A    between atoms: _387  and  _389
REMARK  159  A    between atoms: _389  and  _390
REMARK  160  A    between atoms: _389  and  _392
REMARK  161  A    between atoms: _392  and  _393
REMARK  162  A    between atoms: _393  and  _394
REMARK  163  A    between atoms: _396  and  _398
REMARK  164  A    between atoms: _398  and  _399
REMARK  165  A    between atoms: _398  and  _401
REMARK  166  A    between atoms: _401  and  _402
REMARK  167  A    between atoms: _405  and  _407
REMARK  168  A    between atoms: _407  and  _408
REMARK  169  A    between atoms: _410  and  _412
REMARK  170  A    between atoms: _412  and  _413
REMARK  171  A    between atoms: _415  and  _417
REMARK  172  A    between atoms: _417  and  _418
REMARK  173  A    between atoms: _417  and  _420
REMARK  174  A    between atoms: _420  and  _421
REMARK  175  A    between atoms: _424  and  _426
REMARK  176  A    between atoms: _426  and  _427
REMARK  177  A    between atoms: _429  and  _431
REMARK  178  A    between atoms: _431  and  _432
REMARK  179  A    between atoms: _434  and  _436
REMARK  180  A    between atoms: _436  and  _437
REMARK  181  A    between atoms: _436  and  _439
REMARK  182  A    between atoms: _439  and  _440
REMARK  183  A    between atoms: _446  and  _448
REMARK  184  A    between atoms: _448  and  _449
REMARK  185  A    between atoms: _448  and  _451
REMARK  186  A    between atoms: _451  and  _452
REMARK  187  A    between atoms: _455  and  _457
REMARK  188  A    between atoms: _457  and  _458
REMARK  189  A    between atoms: _457  and  _460
REMARK  190  A    between atoms: _463  and  _465
REMARK  191  A    between atoms: _465  and  _466
REMARK  192  A    between atoms: _465  and  _468
REMARK  193  A    between atoms: _468  and  _469
REMARK  194  A    between atoms: _472  and  _474
REMARK  195  A    between atoms: _474  and  _475
REMARK  196  A    between atoms: _474  and  _477
REMARK  197  A    between atoms: _477  and  _478
REMARK  198  A    between atoms: _482  and  _483
REMARK  199  A    between atoms: _488  and  _490
REMARK  200  A    between atoms: _490  and  _491
REMARK  201  A    between atoms: _490  and  _493
REMARK  202  A    between atoms: _496  and  _498
REMARK  203  A    between atoms: _498  and  _499
REMARK  204  A    between atoms: _498  and  _501
REMARK  205  A    between atoms: _501  and  _502
REMARK  206  A    between atoms: _507  and  _509
REMARK  207  A    between atoms: _509  and  _510
REMARK  208  A    between atoms: _509  and  _512
REMARK  209  A    between atoms: _512  and  _513
REMARK  210  A    between atoms: _516  and  _518
REMARK  211  A    between atoms: _518  and  _519
REMARK  212  A    between atoms: _518  and  _521
REMARK  213  A    between atoms: _521  and  _522
REMARK  214  A    between atoms: _525  and  _527
REMARK  215  A    between atoms: _527  and  _528
REMARK  216  A    between atoms: _530  and  _532
REMARK  217  A    between atoms: _532  and  _533
REMARK  218  A    between atoms: _532  and  _535
REMARK  219  A    between atoms: _535  and  _536
REMARK  220  A    between atoms: _536  and  _537
REMARK  221  A    between atoms: _537  and  _538
REMARK  222  A    between atoms: _547  and  _549
REMARK  223  A    between atoms: _549  and  _550
REMARK  224  A    between atoms: _549  and  _552
REMARK  225  A    between atoms: _552  and  _553
REMARK                            x       y       z     vdW  Elec       q    Type
REMARK                         _______ _______ _______ _____ _____    ______ ____
ROOT
ATOM      1  C   GLY A   5      -8.539  51.706   1.320  0.00  0.00    +0.243 C 
ATOM      2  O   GLY A   5      -9.585  51.078   1.305  0.00  0.00    -0.273 OA
ATOM      3  N   ALA A   6      -8.204  52.588   0.373  0.00  0.00    -0.297 N 
ATOM      4  H   ALA A   6      -7.278  53.056   0.439  0.00  0.00    +0.150 HD
ENDROOT
BRANCH   3   5
ATOM      5  CA  ALA A   6      -9.076  52.926  -0.750  0.00  0.00    +0.149 C 
ATOM      6  CB  ALA A   6      -9.223  54.465  -0.836  0.00  0.00    +0.031 C 
BRANCH   5   7
ATOM      7  C   ALA A   6      -8.508  52.410  -2.069  0.00  0.00    +0.241 C 
ATOM      8  O   ALA A   6      -7.404  52.810  -2.447  0.00  0.00    -0.273 OA
ATOM      9  N   ASP A   7      -9.246  51.560  -2.790  0.00  0.00    -0.297 N 
ATOM     10  H   ASP A   7     -10.140  51.199  -2.399  0.00  0.00    +0.150 HD
BRANCH   9  11
ATOM     11  CA  ASP A   7      -8.813  51.127  -4.129  0.00  0.00    +0.160 C 
BRANCH  11  12
ATOM     12  C   ASP A   7      -8.813  52.281  -5.121  0.00  0.00    +0.241 C 
ATOM     13  N   ASN A   8      -9.739  53.221  -4.910  0.00  0.00    -0.297 N 
ATOM     14  H   ASN A   8     -10.283  53.182  -4.024  0.00  0.00    +0.150 HD
ATOM     15  O   ASP A   7      -7.998  52.298  -6.046  0.00  0.00    -0.273 OA
BRANCH  13  16
ATOM     16  CA  ASN A   8     -10.034  54.304  -5.853  0.00  0.00    +0.158 C 
BRANCH  16  17
ATOM     17  C   ASN A   8      -9.801  55.683  -5.247  0.00  0.00    +0.241 C 
ATOM     18  O   ASN A   8      -9.706  55.846  -4.017  0.00  0.00    -0.273 OA
ATOM     19  N   THR A   9      -9.722  56.666  -6.134  0.00  0.00    -0.295 N 
ATOM     20  H   THR A   9      -9.762  56.427  -7.145  0.00  0.00    +0.150 HD
BRANCH  19  21
ATOM     21  CA  THR A   9      -9.583  58.053  -5.759  0.00  0.00    +0.176 C 
BRANCH  21  22
ATOM     22  C   THR A   9     -10.959  58.731  -5.871  0.00  0.00    +0.243 C 
ATOM     23  N   VAL A  10     -11.382  59.411  -4.810  0.00  0.00    -0.298 N 
ATOM     24  H   VAL A  10     -10.750  59.546  -3.995  0.00  0.00    +0.150 HD
ATOM     25  O   THR A   9     -11.635  58.639  -6.904  0.00  0.00    -0.273 OA
BRANCH  23  26
ATOM     26  CA  VAL A  10     -12.753  59.978  -4.784  0.00  0.00    +0.137 C 
BRANCH  26  27
ATOM     27  CB  VAL A  10     -13.694  59.206  -3.839  0.00  0.00    +0.026 C 
ATOM     28  CG2 VAL A  10     -13.462  57.729  -3.974  0.00  0.00    +0.002 C 
ATOM     29  CG1 VAL A  10     -15.154  59.536  -4.144  0.00  0.00    +0.002 C 
ENDBRANCH  26  27
BRANCH  26  30
ATOM     30  C   VAL A  10     -12.716  61.432  -4.351  0.00  0.00    +0.227 C 
ATOM     31  O   VAL A  10     -12.230  61.738  -3.270  0.00  0.00    -0.286 OA
ENDBRANCH  26  30
ENDBRANCH  23  26
ENDBRANCH  21  22
BRANCH  21  32
ATOM     32  CB  THR A   9      -8.527  58.720  -6.662  0.00  0.00    +0.137 C 
ATOM     33  CG2 THR A   9      -8.483  60.250  -6.465  0.00  0.00    +0.034 C 
BRANCH  32  34
ATOM     34  OG1 THR A   9      -7.253  58.158  -6.352  0.00  0.00    -0.382 OA
ATOM     35  HG1 THR A   9      -7.275  57.182  -6.518  0.00  0.00    +0.210 HD
ENDBRANCH  32  34
ENDBRANCH  21  32
ENDBRANCH  19  21
ENDBRANCH  16  17
BRANCH  16  36
ATOM     36  CB  ASN A   8     -11.491  54.238  -6.293  0.00  0.00    +0.114 C 
BRANCH  36  37
ATOM     37  CG  ASN A   8     -11.917  52.847  -6.693  0.00  0.00    +0.222 C 
ATOM     38  OD1 ASN A   8     -12.736  52.225  -6.014  0.00  0.00    -0.275 OA
ATOM     39  ND2 ASN A   8     -11.355  52.340  -7.782  0.00  0.00    -0.329 N 
ATOM     40 HD21 ASN A   8     -11.601  51.379  -8.095  0.00  0.00    +0.145 HD
ATOM     41 HD22 ASN A   8     -10.668  52.903  -8.323  0.00  0.00    +0.145 HD
ENDBRANCH  36  37
ENDBRANCH  16  36
ENDBRANCH  13  16
ENDBRANCH  11  12
BRANCH  11  42
ATOM     42  CB  ASP A   7      -9.743  50.057  -4.686  0.00  0.00    +0.143 C 
BRANCH  42  43
ATOM     43  CG  ASP A   7      -9.896  48.902  -3.757  0.00  0.00    +0.367 C 
ATOM     44  OD2 ASP A   7      -8.943  48.647  -2.983  0.00  0.00    -0.246 OA
ATOM     45  OD1 ASP A   7     -10.977  48.280  -3.781  0.00  0.00    -0.246 OA
ENDBRANCH  42  43
ENDBRANCH  11  42
ENDBRANCH   9  11
ENDBRANCH   5   7
ENDBRANCH   3   5
BRANCH   1  46
ATOM     46  CA  GLY A   5      -7.536  51.469   2.434  0.00  0.00    +0.176 C 
BRANCH  46  48
ATOM     47  C   THR A   4      -5.298  52.001   1.618  0.00  0.00    +0.243 C 
ATOM     48  N   GLY A   5      -6.348  52.315   2.371  0.00  0.00    -0.295 N 
ATOM     49  H   GLY A   5      -6.322  53.190   2.932  0.00  0.00    +0.150 HD
ATOM     50  O   THR A   4      -5.262  50.996   0.915  0.00  0.00    -0.273 OA
BRANCH  47  51
ATOM     51  CA  THR A   4      -4.121  52.985   1.646  0.00  0.00    +0.176 C 
BRANCH  51  53
ATOM     52  C   ASP A   3      -5.347  55.082   1.266  0.00  0.00    +0.241 C 
ATOM     53  N   THR A   4      -4.507  54.364   2.009  0.00  0.00    -0.295 N 
ATOM     54  H   THR A   4      -4.110  54.787   2.872  0.00  0.00    +0.150 HD
ATOM     55  O   ASP A   3      -5.861  54.641   0.233  0.00  0.00    -0.273 OA
BRANCH  52  56
ATOM     56  CA  ASP A   3      -5.678  56.496   1.777  0.00  0.00    +0.160 C 
BRANCH  56  59
ATOM     57  C   LEU A   2      -4.195  58.396   1.990  0.00  0.00    +0.241 C 
ATOM     58  O   LEU A   2      -4.071  58.244   3.208  0.00  0.00    -0.273 OA
ATOM     59  N   ASP A   3      -4.845  57.534   1.208  0.00  0.00    -0.297 N 
ATOM     60  H   ASP A   3      -4.752  57.608   0.175  0.00  0.00    +0.150 HD
BRANCH  57  61
ATOM     61  CA  LEU A   2      -3.627  59.613   1.306  0.00  0.00    +0.149 C 
BRANCH  61  63
ATOM     62  C   LEU A   1      -5.574  61.067   1.502  0.00  0.00    +0.238 C 
ATOM     63  N   LEU A   2      -4.324  60.775   1.855  0.00  0.00    -0.297 N 
ATOM     64  H   LEU A   2      -3.832  61.387   2.537  0.00  0.00    +0.150 HD
ATOM     65  O   LEU A   1      -6.190  60.446   0.624  0.00  0.00    -0.274 OA
BRANCH  62  66
ATOM     66  CA  LEU A   1      -6.226  62.237   2.247  0.00  0.00    +0.145 C 
BRANCH  66  67
ATOM     67  N   LEU A   1      -6.753  63.175   1.286  0.00  0.00    -0.238 NA
ATOM     68  H   LEU A   1      -7.668  62.970   0.837  0.00  0.00    +0.142 HD
ENDBRANCH  66  67
BRANCH  66  69
ATOM     69  CB  LEU A   1      -7.374  61.774   3.133  0.00  0.00    +0.026 C 
BRANCH  69  70
ATOM     70  CG  LEU A   1      -7.216  60.672   4.175  0.00  0.00    +0.002 C 
ATOM     71  CD2 LEU A   1      -6.476  61.165   5.412  0.00  0.00    +0.000 C 
ATOM     72  CD1 LEU A   1      -8.601  60.177   4.563  0.00  0.00    +0.000 C 
ENDBRANCH  69  70
ENDBRANCH  66  69
ENDBRANCH  62  66
ENDBRANCH  61  63
BRANCH  61  73
ATOM     73  CB  LEU A   2      -2.108  59.716   1.497  0.00  0.00    +0.029 C 
BRANCH  73  74
ATOM     74  CG  LEU A   2      -1.394  60.844   0.731  0.00  0.00    +0.002 C 
ATOM     75  CD2 LEU A   2       0.076  60.872   1.096  0.00  0.00    +0.000 C 
ATOM     76  CD1 LEU A   2      -1.590  60.782  -0.813  0.00  0.00    +0.000 C 
ENDBRANCH  73  74
ENDBRANCH  61  73
ENDBRANCH  57  61
ENDBRANCH  56  59
BRANCH  56  77
ATOM     77  CB  ASP A   3      -7.155  56.841   1.515  0.00  0.00    +0.143 C 
BRANCH  77  78
ATOM     78  CG  ASP A   3      -8.115  55.929   2.276  0.00  0.00    +0.367 C 
ATOM     79  OD2 ASP A   3      -7.650  54.977   2.945  0.00  0.00    -0.246 OA
ATOM     80  OD1 ASP A   3      -9.338  56.188   2.221  0.00  0.00    -0.246 OA
ENDBRANCH  77  78
ENDBRANCH  56  77
ENDBRANCH  52  56
ENDBRANCH  51  53
BRANCH  51  81
ATOM     81  CB  THR A   4      -2.936  52.455   2.546  0.00  0.00    +0.137 C 
ATOM     82  CG2 THR A   4      -1.658  53.293   2.302  0.00  0.00    +0.034 C 
BRANCH  81  83
ATOM     83  OG1 THR A   4      -3.287  52.547   3.937  0.00  0.00    -0.382 OA
ATOM     84  HG1 THR A   4      -4.094  52.000   4.109  0.00  0.00    +0.210 HD
ENDBRANCH  81  83
ENDBRANCH  51  81
ENDBRANCH  47  51
ENDBRANCH  46  48
ENDBRANCH   1  46
TORSDOF 35
REMARK  Name = ../refined-set-2016/2q63/2q63_pocket.pdb
REMARK  225 active torsions:
REMARK  status: ('A' for Active; 'I' for Inactive)
REMARK    1  A    between atoms: _1  and  _3
REMARK    2  A    between atoms: _3  and  _4
REMARK    3  A    between atoms: _3  and  _6
REMARK    4  A    between atoms: _6  and  _7
REMARK    5  A    between atoms: _7  and  _8
REMARK    6  A    between atoms: _8  and  _9
REMARK    7  A    between atoms: _18  and  _20
REMARK    8  A    between atoms: _20  and  _21
REMARK    9  A    between atoms: _20  and  _23
REMARK   10  A    between atoms: _23  and  _24
REMARK   11  A    between atoms: _27  and  _29
REMARK   12  A    between atoms: _29  and  _30
REMARK   13  A    between atoms: _29  and  _32
REMARK   14  A    between atoms: _32  and  _33
REMARK   15  A    between atoms: _36  and  _38
REMARK   16  A    between atoms: _38  and  _39
REMARK   17  A    between atoms: _38  and  _41
REMARK   18  A    between atoms: _41  and  _42
REMARK   19  A    between atoms: _45  and  _47
REMARK   20  A    between atoms: _47  and  _48
REMARK   21  A    between atoms: _47  and  _50
REMARK   22  A    between atoms: _50  and  _51
REMARK   23  A    between atoms: _54  and  _56
REMARK   24  A    between atoms: _56  and  _57
REMARK   25  A    between atoms: _59  and  _61
REMARK   26  A    between atoms: _61  and  _62
REMARK   27  A    between atoms: _65  and  _67
REMARK   28  A    between atoms: _67  and  _68
REMARK   29  A    between atoms: _67  and  _70
REMARK   30  A    between atoms: _70  and  _71
REMARK   31  A    between atoms: _74  and  _76
REMARK   32  A    between atoms: _76  and  _77
REMARK   33  A    between atoms: _76  and  _79
REMARK   34  A    between atoms: _79  and  _80
REMARK   35  A    between atoms: _85  and  _87
REMARK   36  A    between atoms: _87  and  _88
REMARK   37  A    between atoms: _87  and  _90
REMARK   38  A    between atoms: _90  and  _91
REMARK   39  A    between atoms: _94  and  _96
REMARK   40  A    between atoms: _96  and  _97
REMARK   41  A    between atoms: _96  and  _99
REMARK   42  A    between atoms: _102  and  _104
REMARK   43  A    between atoms: _104  and  _105
REMARK   44  A    between atoms: _104  and  _107
REMARK   45  A    between atoms: _107  and  _108
REMARK   46  A    between atoms: _108  and  _109
REMARK   47  A    between atoms: _109  and  _110
REMARK   48  A    between atoms: _110  and  _111
REMARK   49  A    between atoms: _115  and  _117
REMARK   50  A    between atoms: _117  and  _118
REMARK   51  A    between atoms: _117  and  _120
REMARK   52  A    between atoms: _120  and  _121
REMARK   53  A    between atoms: _124  and  _126
REMARK   54  A    between atoms: _126  and  _127
REMARK   55  A    between atoms: _129  and  _131
REMARK   56  A    between atoms: _131  and  _132
REMARK   57  A    between atoms: _134  and  _136
REMARK   58  A    between atoms: _136  and  _137
REMARK   59  A    between atoms: _136  and  _139
REMARK   60  A    between atoms: _139  and  _140
REMARK   61  A    between atoms: _143  and  _145
REMARK   62  A    between atoms: _145  and  _146
REMARK   63  A    between atoms: _148  and  _150
REMARK   64  A    between atoms: _150  and  _151
REMARK   65  A    between atoms: _153  and  _155
REMARK   66  A    between atoms: _155  and  _156
REMARK   67  A    between atoms: _155  and  _158
REMARK   68  A    between atoms: _158  and  _159
REMARK   69  A    between atoms: _162  and  _164
REMARK   70  A    between atoms: _164  and  _165
REMARK   71  A    between atoms: _164  and  _167
REMARK   72  A    between atoms: _167  and  _168
REMARK   73  A    between atoms: _172  and  _173
REMARK   74  A    between atoms: _178  and  _180
REMARK   75  A    between atoms: _180  and  _181
REMARK   76  A    between atoms: _180  and  _183
REMARK   77  A    between atoms: _183  and  _184
REMARK   78  A    between atoms: _188  and  _189
REMARK   79  A    between atoms: _194  and  _196
REMARK   80  A    between atoms: _196  and  _197
REMARK   81  A    between atoms: _196  and  _199
REMARK   82  A    between atoms: _202  and  _204
REMARK   83  A    between atoms: _204  and  _205
REMARK   84  A    between atoms: _204  and  _207
REMARK   85  A    between atoms: _207  and  _208
REMARK   86  A    between atoms: _213  and  _215
REMARK   87  A    between atoms: _215  and  _216
REMARK   88  A    between atoms: _215  and  _218
REMARK   89  A    between atoms: _218  and  _219
REMARK   90  A    between atoms: _222  and  _224
REMARK   91  A    between atoms: _224  and  _225
REMARK   92  A    between atoms: _224  and  _227
REMARK   93  A    between atoms: _227  and  _228
REMARK   94  A    between atoms: _231  and  _233
REMARK   95  A    between atoms: _233  and  _234
REMARK   96  A    between atoms: _236  and  _238
REMARK   97  A    between atoms: _238  and  _239
REMARK   98  A    between atoms: _238  and  _241
REMARK   99  A    between atoms: _241  and  _242
REMARK  100  A    between atoms: _242  and  _243
REMARK  101  A    between atoms: _243  and  _244
REMARK  102  A    between atoms: _253  and  _255
REMARK  103  A    between atoms: _255  and  _256
REMARK  104  A    between atoms: _255  and  _258
REMARK  105  A    between atoms: _258  and  _259
REMARK  106  A    between atoms: _264  and  _266
REMARK  107  A    between atoms: _266  and  _267
REMARK  108  A    between atoms: _266  and  _269
REMARK  109  A    between atoms: _269  and  _270
REMARK  110  A    between atoms: _270  and  _271
REMARK  111  A    between atoms: _271  and  _272
REMARK  112  A    between atoms: _281  and  _283
REMARK  113  A    between atoms: _283  and  _284
REMARK  114  A    between atoms: _283  and  _286
REMARK  115  A    between atoms: _286  and  _287
REMARK  116  A    between atoms: _290  and  _292
REMARK  117  A    between atoms: _292  and  _293
REMARK  118  A    between atoms: _292  and  _295
REMARK  119  A    between atoms: _295  and  _296
REMARK  120  A    between atoms: _299  and  _301
REMARK  121  A    between atoms: _301  and  _302
REMARK  122  A    between atoms: _301  and  _304
REMARK  123  A    between atoms: _304  and  _305
REMARK  124  A    between atoms: _308  and  _310
REMARK  125  A    between atoms: _310  and  _311
REMARK  126  A    between atoms: _310  and  _313
REMARK  127  A    between atoms: _313  and  _314
REMARK  128  A    between atoms: _317  and  _319
REMARK  129  A    between atoms: _319  and  _320
REMARK  130  A    between atoms: _319  and  _322
REMARK  131  A    between atoms: _322  and  _323
REMARK  132  A    between atoms: _326  and  _328
REMARK  133  A    between atoms: _328  and  _329
REMARK  134  A    between atoms: _331  and  _333
REMARK  135  A    between atoms: _333  and  _334
REMARK  136  A    between atoms: _337  and  _339
REMARK  137  A    between atoms: _339  and  _340
REMARK  138  A    between atoms: _339  and  _342
REMARK  139  A    between atoms: _342  and  _343
REMARK  140  A    between atoms: _346  and  _348
REMARK  141  A    between atoms: _348  and  _349
REMARK  142  A    between atoms: _348  and  _351
REMARK  143  A    between atoms: _351  and  _352
REMARK  144  A    between atoms: _357  and  _359
REMARK  145  A    between atoms: _359  and  _360
REMARK  146  A    between atoms: _359  and  _362
REMARK  147  A    between atoms: _362  and  _363
REMARK  148  A    between atoms: _366  and  _368
REMARK  149  A    between atoms: _368  and  _369
REMARK  150  A    between atoms: _368  and  _371
REMARK  151  A    between atoms: _374  and  _376
REMARK  152  A    between atoms: _376  and  _377
REMARK  153  A    between atoms: _376  and  _379
REMARK  154  A    between atoms: _379  and  _380
REMARK  155  A    between atoms: _380  and  _381
REMARK  156  A    between atoms: _381  and  _382
REMARK  157  A    between atoms: _382  and  _383
REMARK  158  A    between atoms: _387  and  _389
REMARK  159  A    between atoms: _389  and  _390
REMARK  160  A    between atoms: _389  and  _392
REMARK  161  A    between atoms: _392  and  _393
REMARK  162  A    between atoms: _393  and  _394
REMARK  163  A    between atoms: _396  and  _398
REMARK  164  A    between atoms: _398  and  _399
REMARK  165  A    between atoms: _398  and  _401
REMARK  166  A    between atoms: _401  and  _402
REMARK  167  A    between atoms: _405  and  _407
REMARK  168  A    between atoms: _407  and  _408
REMARK  169  A    between atoms: _410  and  _412
REMARK  170  A    between atoms: _412  and  _413
REMARK  171  A    between atoms: _415  and  _417
REMARK  172  A    between atoms: _417  and  _418
REMARK  173  A    between atoms: _417  and  _420
REMARK  174  A    between atoms: _420  and  _421
REMARK  175  A    between atoms: _424  and  _426
REMARK  176  A    between atoms: _426  and  _427
REMARK  177  A    between atoms: _429  and  _431
REMARK  178  A    between atoms: _431  and  _432
REMARK  179  A    between atoms: _434  and  _436
REMARK  180  A    between atoms: _436  and  _437
REMARK  181  A    between atoms: _436  and  _439
REMARK  182  A    between atoms: _439  and  _440
REMARK  183  A    between atoms: _446  and  _448
REMARK  184  A    between atoms: _448  and  _449
REMARK  185  A    between atoms: _448  and  _451
REMARK  186  A    between atoms: _451  and  _452
REMARK  187  A    between atoms: _455  and  _457
REMARK  188  A    between atoms: _457  and  _458
REMARK  189  A    between atoms: _457  and  _460
REMARK  190  A    between atoms: _463  and  _465
REMARK  191  A    between atoms: _465  and  _466
REMARK  192  A    between atoms: _465  and  _468
REMARK  193  A    between atoms: _468  and  _469
REMARK  194  A    between atoms: _472  and  _474
REMARK  195  A    between atoms: _474  and  _475
REMARK  196  A    between atoms: _474  and  _477
REMARK  197  A    between atoms: _477  and  _478
REMARK  198  A    between atoms: _482  and  _483
REMARK  199  A    between atoms: _488  and  _490
REMARK  200  A    between atoms: _490  and  _491
REMARK  201  A    between atoms: _490  and  _493
REMARK  202  A    between atoms: _496  and  _498
REMARK  203  A    between atoms: _498  and  _499
REMARK  204  A    between atoms: _498  and  _501
REMARK  205  A    between atoms: _501  and  _502
REMARK  206  A    between atoms: _507  and  _509
REMARK  207  A    between atoms: _509  and  _510
REMARK  208  A    between atoms: _509  and  _512
REMARK  209  A    between atoms: _512  and  _513
REMARK  210  A    between atoms: _516  and  _518
REMARK  211  A    between atoms: _518  and  _519
REMARK  212  A    between atoms: _518  and  _521
REMARK  213  A    between atoms: _521  and  _522
REMARK  214  A    between atoms: _525  and  _527
REMARK  215  A    between atoms: _527  and  _528
REMARK  216  A    between atoms: _530  and  _532
REMARK  217  A    between atoms: _532  and  _533
REMARK  218  A    between atoms: _532  and  _535
REMARK  219  A    between atoms: _535  and  _536
REMARK  220  A    between atoms: _536  and  _537
REMARK  221  A    between atoms: _537  and  _538
REMARK  222  A    between atoms: _547  and  _549
REMARK  223  A    between atoms: _549  and  _550
REMARK  224  A    between atoms: _549  and  _552
REMARK  225  A    between atoms: _552  and  _553
REMARK                            x       y       z     vdW  Elec       q    Type
REMARK                         _______ _______ _______ _____ _____    ______ ____
ROOT
ATOM      1  CG  LYS A   1     -18.013  52.985 -10.385  0.00  0.00    -0.000 C 
ENDROOT
BRANCH   1   2
ATOM      2  CB  LYS A   1     -18.782  54.189 -10.935  0.00  0.00    +0.025 C 
BRANCH   2   3
ATOM      3  CA  LYS A   1     -20.308  54.039 -10.912  0.00  0.00    +0.133 C 
BRANCH   3   4
ATOM      4  N   LYS A   1     -20.928  55.091 -11.730  0.00  0.00    -0.239 NA
ATOM      5  H   LYS A   1     -21.233  55.969 -11.264  0.00  0.00    +0.142 HD
ENDBRANCH   3   4
BRANCH   3   6
ATOM      6  C   LYS A   1     -20.795  54.105  -9.472  0.00  0.00    +0.224 C 
ATOM      7  O   LYS A   1     -20.842  55.184  -8.882  0.00  0.00    -0.287 OA
ENDBRANCH   3   6
ENDBRANCH   2   3
ENDBRANCH   1   2
BRANCH   1   8
ATOM      8  CD  LYS A   1     -16.501  53.205 -10.494  0.00  0.00    -0.024 C 
BRANCH   8   9
ATOM      9  CE  LYS A   1     -15.684  52.087  -9.863  0.00  0.00    -0.086 C 
BRANCH   9  10
ATOM     10  NZ  LYS A   1     -15.664  50.824 -10.687  0.00  0.00    +0.380 N 
ATOM     11  HZ1 LYS A   1     -15.092  50.104 -10.202  0.00  0.00    -0.089 HD
ATOM     12  HZ2 LYS A   1     -16.636  50.474 -10.806  0.00  0.00    -0.089 HD
ATOM     13  HZ3 LYS A   1     -15.251  51.027 -11.620  0.00  0.00    -0.089 HD
ENDBRANCH   9  10
ENDBRANCH   8   9
ENDBRANCH   1   8
TORSDOF 7
REMARK  Name = ../refined-set-2016/2q63/2q63_pocket.pdb
REMARK  225 active torsions:
REMARK  status: ('A' for Active; 'I' for Inactive)
REMARK    1  A    between atoms: _1  and  _3
REMARK    2  A    between atoms: _3  and  _4
REMARK    3  A    between atoms: _3  and  _6
REMARK    4  A    between atoms: _6  and  _7
REMARK    5  A    between atoms: _7  and  _8
REMARK    6  A    between atoms: _8  and  _9
REMARK    7  A    between atoms: _18  and  _20
REMARK    8  A    between atoms: _20  and  _21
REMARK    9  A    between atoms: _20  and  _23
REMARK   10  A    between atoms: _23  and  _24
REMARK   11  A    between atoms: _27  and  _29
REMARK   12  A    between atoms: _29  and  _30
REMARK   13  A    between atoms: _29  and  _32
REMARK   14  A    between atoms: _32  and  _33
REMARK   15  A    between atoms: _36  and  _38
REMARK   16  A    between atoms: _38  and  _39
REMARK   17  A    between atoms: _38  and  _41
REMARK   18  A    between atoms: _41  and  _42
REMARK   19  A    between atoms: _45  and  _47
REMARK   20  A    between atoms: _47  and  _48
REMARK   21  A    between atoms: _47  and  _50
REMARK   22  A    between atoms: _50  and  _51
REMARK   23  A    between atoms: _54  and  _56
REMARK   24  A    between atoms: _56  and  _57
REMARK   25  A    between atoms: _59  and  _61
REMARK   26  A    between atoms: _61  and  _62
REMARK   27  A    between atoms: _65  and  _67
REMARK   28  A    between atoms: _67  and  _68
REMARK   29  A    between atoms: _67  and  _70
REMARK   30  A    between atoms: _70  and  _71
REMARK   31  A    between atoms: _74  and  _76
REMARK   32  A    between atoms: _76  and  _77
REMARK   33  A    between atoms: _76  and  _79
REMARK   34  A    between atoms: _79  and  _80
REMARK   35  A    between atoms: _85  and  _87
REMARK   36  A    between atoms: _87  and  _88
REMARK   37  A    between atoms: _87  and  _90
REMARK   38  A    between atoms: _90  and  _91
REMARK   39  A    between atoms: _94  and  _96
REMARK   40  A    between atoms: _96  and  _97
REMARK   41  A    between atoms: _96  and  _99
REMARK   42  A    between atoms: _102  and  _104
REMARK   43  A    between atoms: _104  and  _105
REMARK   44  A    between atoms: _104  and  _107
REMARK   45  A    between atoms: _107  and  _108
REMARK   46  A    between atoms: _108  and  _109
REMARK   47  A    between atoms: _109  and  _110
REMARK   48  A    between atoms: _110  and  _111
REMARK   49  A    between atoms: _115  and  _117
REMARK   50  A    between atoms: _117  and  _118
REMARK   51  A    between atoms: _117  and  _120
REMARK   52  A    between atoms: _120  and  _121
REMARK   53  A    between atoms: _124  and  _126
REMARK   54  A    between atoms: _126  and  _127
REMARK   55  A    between atoms: _129  and  _131
REMARK   56  A    between atoms: _131  and  _132
REMARK   57  A    between atoms: _134  and  _136
REMARK   58  A    between atoms: _136  and  _137
REMARK   59  A    between atoms: _136  and  _139
REMARK   60  A    between atoms: _139  and  _140
REMARK   61  A    between atoms: _143  and  _145
REMARK   62  A    between atoms: _145  and  _146
REMARK   63  A    between atoms: _148  and  _150
REMARK   64  A    between atoms: _150  and  _151
REMARK   65  A    between atoms: _153  and  _155
REMARK   66  A    between atoms: _155  and  _156
REMARK   67  A    between atoms: _155  and  _158
REMARK   68  A    between atoms: _158  and  _159
REMARK   69  A    between atoms: _162  and  _164
REMARK   70  A    between atoms: _164  and  _165
REMARK   71  A    between atoms: _164  and  _167
REMARK   72  A    between atoms: _167  and  _168
REMARK   73  A    between atoms: _172  and  _173
REMARK   74  A    between atoms: _178  and  _180
REMARK   75  A    between atoms: _180  and  _181
REMARK   76  A    between atoms: _180  and  _183
REMARK   77  A    between atoms: _183  and  _184
REMARK   78  A    between atoms: _188  and  _189
REMARK   79  A    between atoms: _194  and  _196
REMARK   80  A    between atoms: _196  and  _197
REMARK   81  A    between atoms: _196  and  _199
REMARK   82  A    between atoms: _202  and  _204
REMARK   83  A    between atoms: _204  and  _205
REMARK   84  A    between atoms: _204  and  _207
REMARK   85  A    between atoms: _207  and  _208
REMARK   86  A    between atoms: _213  and  _215
REMARK   87  A    between atoms: _215  and  _216
REMARK   88  A    between atoms: _215  and  _218
REMARK   89  A    between atoms: _218  and  _219
REMARK   90  A    between atoms: _222  and  _224
REMARK   91  A    between atoms: _224  and  _225
REMARK   92  A    between atoms: _224  and  _227
REMARK   93  A    between atoms: _227  and  _228
REMARK   94  A    between atoms: _231  and  _233
REMARK   95  A    between atoms: _233  and  _234
REMARK   96  A    between atoms: _236  and  _238
REMARK   97  A    between atoms: _238  and  _239
REMARK   98  A    between atoms: _238  and  _241
REMARK   99  A    between atoms: _241  and  _242
REMARK  100  A    between atoms: _242  and  _243
REMARK  101  A    between atoms: _243  and  _244
REMARK  102  A    between atoms: _253  and  _255
REMARK  103  A    between atoms: _255  and  _256
REMARK  104  A    between atoms: _255  and  _258
REMARK  105  A    between atoms: _258  and  _259
REMARK  106  A    between atoms: _264  and  _266
REMARK  107  A    between atoms: _266  and  _267
REMARK  108  A    between atoms: _266  and  _269
REMARK  109  A    between atoms: _269  and  _270
REMARK  110  A    between atoms: _270  and  _271
REMARK  111  A    between atoms: _271  and  _272
REMARK  112  A    between atoms: _281  and  _283
REMARK  113  A    between atoms: _283  and  _284
REMARK  114  A    between atoms: _283  and  _286
REMARK  115  A    between atoms: _286  and  _287
REMARK  116  A    between atoms: _290  and  _292
REMARK  117  A    between atoms: _292  and  _293
REMARK  118  A    between atoms: _292  and  _295
REMARK  119  A    between atoms: _295  and  _296
REMARK  120  A    between atoms: _299  and  _301
REMARK  121  A    between atoms: _301  and  _302
REMARK  122  A    between atoms: _301  and  _304
REMARK  123  A    between atoms: _304  and  _305
REMARK  124  A    between atoms: _308  and  _310
REMARK  125  A    between atoms: _310  and  _311
REMARK  126  A    between atoms: _310  and  _313
REMARK  127  A    between atoms: _313  and  _314
REMARK  128  A    between atoms: _317  and  _319
REMARK  129  A    between atoms: _319  and  _320
REMARK  130  A    between atoms: _319  and  _322
REMARK  131  A    between atoms: _322  and  _323
REMARK  132  A    between atoms: _326  and  _328
REMARK  133  A    between atoms: _328  and  _329
REMARK  134  A    between atoms: _331  and  _333
REMARK  135  A    between atoms: _333  and  _334
REMARK  136  A    between atoms: _337  and  _339
REMARK  137  A    between atoms: _339  and  _340
REMARK  138  A    between atoms: _339  and  _342
REMARK  139  A    between atoms: _342  and  _343
REMARK  140  A    between atoms: _346  and  _348
REMARK  141  A    between atoms: _348  and  _349
REMARK  142  A    between atoms: _348  and  _351
REMARK  143  A    between atoms: _351  and  _352
REMARK  144  A    between atoms: _357  and  _359
REMARK  145  A    between atoms: _359  and  _360
REMARK  146  A    between atoms: _359  and  _362
REMARK  147  A    between atoms: _362  and  _363
REMARK  148  A    between atoms: _366  and  _368
REMARK  149  A    between atoms: _368  and  _369
REMARK  150  A    between atoms: _368  and  _371
REMARK  151  A    between atoms: _374  and  _376
REMARK  152  A    between atoms: _376  and  _377
REMARK  153  A    between atoms: _376  and  _379
REMARK  154  A    between atoms: _379  and  _380
REMARK  155  A    between atoms: _380  and  _381
REMARK  156  A    between atoms: _381  and  _382
REMARK  157  A    between atoms: _382  and  _383
REMARK  158  A    between atoms: _387  and  _389
REMARK  159  A    between atoms: _389  and  _390
REMARK  160  A    between atoms: _389  and  _392
REMARK  161  A    between atoms: _392  and  _393
REMARK  162  A    between atoms: _393  and  _394
REMARK  163  A    between atoms: _396  and  _398
REMARK  164  A    between atoms: _398  and  _399
REMARK  165  A    between atoms: _398  and  _401
REMARK  166  A    between atoms: _401  and  _402
REMARK  167  A    between atoms: _405  and  _407
REMARK  168  A    between atoms: _407  and  _408
REMARK  169  A    between atoms: _410  and  _412
REMARK  170  A    between atoms: _412  and  _413
REMARK  171  A    between atoms: _415  and  _417
REMARK  172  A    between atoms: _417  and  _418
REMARK  173  A    between atoms: _417  and  _420
REMARK  174  A    between atoms: _420  and  _421
REMARK  175  A    between atoms: _424  and  _426
REMARK  176  A    between atoms: _426  and  _427
REMARK  177  A    between atoms: _429  and  _431
REMARK  178  A    between atoms: _431  and  _432
REMARK  179  A    between atoms: _434  and  _436
REMARK  180  A    between atoms: _436  and  _437
REMARK  181  A    between atoms: _436  and  _439
REMARK  182  A    between atoms: _439  and  _440
REMARK  183  A    between atoms: _446  and  _448
REMARK  184  A    between atoms: _448  and  _449
REMARK  185  A    between atoms: _448  and  _451
REMARK  186  A    between atoms: _451  and  _452
REMARK  187  A    between atoms: _455  and  _457
REMARK  188  A    between atoms: _457  and  _458
REMARK  189  A    between atoms: _457  and  _460
REMARK  190  A    between atoms: _463  and  _465
REMARK  191  A    between atoms: _465  and  _466
REMARK  192  A    between atoms: _465  and  _468
REMARK  193  A    between atoms: _468  and  _469
REMARK  194  A    between atoms: _472  and  _474
REMARK  195  A    between atoms: _474  and  _475
REMARK  196  A    between atoms: _474  and  _477
REMARK  197  A    between atoms: _477  and  _478
REMARK  198  A    between atoms: _482  and  _483
REMARK  199  A    between atoms: _488  and  _490
REMARK  200  A    between atoms: _490  and  _491
REMARK  201  A    between atoms: _490  and  _493
REMARK  202  A    between atoms: _496  and  _498
REMARK  203  A    between atoms: _498  and  _499
REMARK  204  A    between atoms: _498  and  _501
REMARK  205  A    between atoms: _501  and  _502
REMARK  206  A    between atoms: _507  and  _509
REMARK  207  A    between atoms: _509  and  _510
REMARK  208  A    between atoms: _509  and  _512
REMARK  209  A    between atoms: _512  and  _513
REMARK  210  A    between atoms: _516  and  _518
REMARK  211  A    between atoms: _518  and  _519
REMARK  212  A    between atoms: _518  and  _521
REMARK  213  A    between atoms: _521  and  _522
REMARK  214  A    between atoms: _525  and  _527
REMARK  215  A    between atoms: _527  and  _528
REMARK  216  A    between atoms: _530  and  _532
REMARK  217  A    between atoms: _532  and  _533
REMARK  218  A    between atoms: _532  and  _535
REMARK  219  A    between atoms: _535  and  _536
REMARK  220  A    between atoms: _536  and  _537
REMARK  221  A    between atoms: _537  and  _538
REMARK  222  A    between atoms: _547  and  _549
REMARK  223  A    between atoms: _549  and  _550
REMARK  224  A    between atoms: _549  and  _552
REMARK  225  A    between atoms: _552  and  _553
REMARK                            x       y       z     vdW  Elec       q    Type
REMARK                         _______ _______ _______ _____ _____    ______ ____
ROOT
ATOM      1  C   GLY A   3     -18.092  51.552   3.000  0.00  0.00    +0.243 C 
ATOM      2  N   ILE A   4     -17.711  52.016   4.188  0.00  0.00    -0.297 N 
ATOM      3  H   ILE A   4     -16.907  52.674   4.238  0.00  0.00    +0.150 HD
ATOM      4  O   GLY A   3     -18.948  50.673   2.857  0.00  0.00    -0.273 OA
ENDROOT
BRANCH   2   5
ATOM      5  CA  ILE A   4     -18.389  51.628   5.425  0.00  0.00    +0.149 C 
BRANCH   5   6
ATOM      6  C   ILE A   4     -19.760  52.306   5.504  0.00  0.00    +0.241 C 
ATOM      7  N   GLY A   5     -20.772  51.534   5.885  0.00  0.00    -0.295 N 
ATOM      8  H   GLY A   5     -20.606  50.522   6.058  0.00  0.00    +0.150 HD
ATOM      9  O   ILE A   4     -19.905  53.495   5.188  0.00  0.00    -0.273 OA
BRANCH   7  10
ATOM     10  CA  GLY A   5     -22.111  52.082   6.064  0.00  0.00    +0.176 C 
BRANCH  10  11
ATOM     11  C   GLY A   5     -22.944  52.256   4.810  0.00  0.00    +0.243 C 
ATOM     12  O   GLY A   5     -24.085  52.724   4.881  0.00  0.00    -0.273 OA
ATOM     13  N   GLY A   6     -22.392  51.902   3.658  0.00  0.00    -0.296 N 
ATOM     14  H   GLY A   6     -21.395  51.609   3.630  0.00  0.00    +0.150 HD
BRANCH  13  15
ATOM     15  CA  GLY A   6     -23.174  51.922   2.434  0.00  0.00    +0.163 C 
BRANCH  15  16
ATOM     16  C   GLY A   6     -22.450  52.308   1.163  0.00  0.00    +0.229 C 
ATOM     17  O   GLY A   6     -21.223  52.230   1.076  0.00  0.00    -0.286 OA
ENDBRANCH  15  16
ENDBRANCH  13  15
ENDBRANCH  10  11
ENDBRANCH   7  10
ENDBRANCH   5   6
BRANCH   5  18
ATOM     18  CB  ILE A   4     -17.501  51.884   6.672  0.00  0.00    +0.027 C 
ATOM     19  CG2 ILE A   4     -18.236  52.648   7.757  0.00  0.00    +0.002 C 
BRANCH  18  20
ATOM     20  CG1 ILE A   4     -17.049  50.545   7.250  0.00  0.00    +0.002 C 
ATOM     21  CD1 ILE A   4     -15.918  50.633   8.240  0.00  0.00    +0.000 C 
ENDBRANCH  18  20
ENDBRANCH   5  18
ENDBRANCH   2   5
BRANCH   1  22
ATOM     22  CA  GLY A   3     -17.414  52.161   1.795  0.00  0.00    +0.176 C 
BRANCH  22  24
ATOM     23  C   GLY A   2     -17.901  51.289  -0.437  0.00  0.00    +0.243 C 
ATOM     24  N   GLY A   3     -18.285  51.960   0.644  0.00  0.00    -0.295 N 
ATOM     25  H   GLY A   3     -19.246  52.358   0.670  0.00  0.00    +0.150 HD
ATOM     26  O   GLY A   2     -16.729  50.980  -0.673  0.00  0.00    -0.273 OA
BRANCH  23  27
ATOM     27  CA  GLY A   2     -19.007  50.940  -1.404  0.00  0.00    +0.176 C 
BRANCH  27  29
ATOM     28  C   ILE A   1     -19.106  52.332  -3.385  0.00  0.00    +0.238 C 
ATOM     29  N   GLY A   2     -18.653  51.244  -2.781  0.00  0.00    -0.296 N 
ATOM     30  H   GLY A   2     -18.031  50.594  -3.302  0.00  0.00    +0.150 HD
ATOM     31  O   ILE A   1     -19.843  53.147  -2.826  0.00  0.00    -0.274 OA
BRANCH  28  32
ATOM     32  CA  ILE A   1     -18.661  52.520  -4.835  0.00  0.00    +0.145 C 
BRANCH  32  33
ATOM     33  CB  ILE A   1     -17.401  53.375  -4.884  0.00  0.00    +0.025 C 
ATOM     34  CG2 ILE A   1     -16.738  53.259  -6.251  0.00  0.00    +0.002 C 
BRANCH  33  35
ATOM     35  CG1 ILE A   1     -17.732  54.834  -4.589  0.00  0.00    +0.002 C 
ATOM     36  CD1 ILE A   1     -16.573  55.676  -4.430  0.00  0.00    +0.000 C 
ENDBRANCH  33  35
ENDBRANCH  32  33
BRANCH  32  37
ATOM     37  N   ILE A   1     -19.729  53.028  -5.698  0.00  0.00    -0.238 NA
ATOM     38  H   ILE A   1     -20.178  53.940  -5.480  0.00  0.00    +0.142 HD
ENDBRANCH  32  37
ENDBRANCH  28  32
ENDBRANCH  27  29
ENDBRANCH  23  27
ENDBRANCH  22  24
ENDBRANCH   1  22
TORSDOF 16
REMARK  Name = ../refined-set-2016/2q63/2q63_pocket.pdb
REMARK  225 active torsions:
REMARK  status: ('A' for Active; 'I' for Inactive)
REMARK    1  A    between atoms: _1  and  _3
REMARK    2  A    between atoms: _3  and  _4
REMARK    3  A    between atoms: _3  and  _6
REMARK    4  A    between atoms: _6  and  _7
REMARK    5  A    between atoms: _7  and  _8
REMARK    6  A    between atoms: _8  and  _9
REMARK    7  A    between atoms: _18  and  _20
REMARK    8  A    between atoms: _20  and  _21
REMARK    9  A    between atoms: _20  and  _23
REMARK   10  A    between atoms: _23  and  _24
REMARK   11  A    between atoms: _27  and  _29
REMARK   12  A    between atoms: _29  and  _30
REMARK   13  A    between atoms: _29  and  _32
REMARK   14  A    between atoms: _32  and  _33
REMARK   15  A    between atoms: _36  and  _38
REMARK   16  A    between atoms: _38  and  _39
REMARK   17  A    between atoms: _38  and  _41
REMARK   18  A    between atoms: _41  and  _42
REMARK   19  A    between atoms: _45  and  _47
REMARK   20  A    between atoms: _47  and  _48
REMARK   21  A    between atoms: _47  and  _50
REMARK   22  A    between atoms: _50  and  _51
REMARK   23  A    between atoms: _54  and  _56
REMARK   24  A    between atoms: _56  and  _57
REMARK   25  A    between atoms: _59  and  _61
REMARK   26  A    between atoms: _61  and  _62
REMARK   27  A    between atoms: _65  and  _67
REMARK   28  A    between atoms: _67  and  _68
REMARK   29  A    between atoms: _67  and  _70
REMARK   30  A    between atoms: _70  and  _71
REMARK   31  A    between atoms: _74  and  _76
REMARK   32  A    between atoms: _76  and  _77
REMARK   33  A    between atoms: _76  and  _79
REMARK   34  A    between atoms: _79  and  _80
REMARK   35  A    between atoms: _85  and  _87
REMARK   36  A    between atoms: _87  and  _88
REMARK   37  A    between atoms: _87  and  _90
REMARK   38  A    between atoms: _90  and  _91
REMARK   39  A    between atoms: _94  and  _96
REMARK   40  A    between atoms: _96  and  _97
REMARK   41  A    between atoms: _96  and  _99
REMARK   42  A    between atoms: _102  and  _104
REMARK   43  A    between atoms: _104  and  _105
REMARK   44  A    between atoms: _104  and  _107
REMARK   45  A    between atoms: _107  and  _108
REMARK   46  A    between atoms: _108  and  _109
REMARK   47  A    between atoms: _109  and  _110
REMARK   48  A    between atoms: _110  and  _111
REMARK   49  A    between atoms: _115  and  _117
REMARK   50  A    between atoms: _117  and  _118
REMARK   51  A    between atoms: _117  and  _120
REMARK   52  A    between atoms: _120  and  _121
REMARK   53  A    between atoms: _124  and  _126
REMARK   54  A    between atoms: _126  and  _127
REMARK   55  A    between atoms: _129  and  _131
REMARK   56  A    between atoms: _131  and  _132
REMARK   57  A    between atoms: _134  and  _136
REMARK   58  A    between atoms: _136  and  _137
REMARK   59  A    between atoms: _136  and  _139
REMARK   60  A    between atoms: _139  and  _140
REMARK   61  A    between atoms: _143  and  _145
REMARK   62  A    between atoms: _145  and  _146
REMARK   63  A    between atoms: _148  and  _150
REMARK   64  A    between atoms: _150  and  _151
REMARK   65  A    between atoms: _153  and  _155
REMARK   66  A    between atoms: _155  and  _156
REMARK   67  A    between atoms: _155  and  _158
REMARK   68  A    between atoms: _158  and  _159
REMARK   69  A    between atoms: _162  and  _164
REMARK   70  A    between atoms: _164  and  _165
REMARK   71  A    between atoms: _164  and  _167
REMARK   72  A    between atoms: _167  and  _168
REMARK   73  A    between atoms: _172  and  _173
REMARK   74  A    between atoms: _178  and  _180
REMARK   75  A    between atoms: _180  and  _181
REMARK   76  A    between atoms: _180  and  _183
REMARK   77  A    between atoms: _183  and  _184
REMARK   78  A    between atoms: _188  and  _189
REMARK   79  A    between atoms: _194  and  _196
REMARK   80  A    between atoms: _196  and  _197
REMARK   81  A    between atoms: _196  and  _199
REMARK   82  A    between atoms: _202  and  _204
REMARK   83  A    between atoms: _204  and  _205
REMARK   84  A    between atoms: _204  and  _207
REMARK   85  A    between atoms: _207  and  _208
REMARK   86  A    between atoms: _213  and  _215
REMARK   87  A    between atoms: _215  and  _216
REMARK   88  A    between atoms: _215  and  _218
REMARK   89  A    between atoms: _218  and  _219
REMARK   90  A    between atoms: _222  and  _224
REMARK   91  A    between atoms: _224  and  _225
REMARK   92  A    between atoms: _224  and  _227
REMARK   93  A    between atoms: _227  and  _228
REMARK   94  A    between atoms: _231  and  _233
REMARK   95  A    between atoms: _233  and  _234
REMARK   96  A    between atoms: _236  and  _238
REMARK   97  A    between atoms: _238  and  _239
REMARK   98  A    between atoms: _238  and  _241
REMARK   99  A    between atoms: _241  and  _242
REMARK  100  A    between atoms: _242  and  _243
REMARK  101  A    between atoms: _243  and  _244
REMARK  102  A    between atoms: _253  and  _255
REMARK  103  A    between atoms: _255  and  _256
REMARK  104  A    between atoms: _255  and  _258
REMARK  105  A    between atoms: _258  and  _259
REMARK  106  A    between atoms: _264  and  _266
REMARK  107  A    between atoms: _266  and  _267
REMARK  108  A    between atoms: _266  and  _269
REMARK  109  A    between atoms: _269  and  _270
REMARK  110  A    between atoms: _270  and  _271
REMARK  111  A    between atoms: _271  and  _272
REMARK  112  A    between atoms: _281  and  _283
REMARK  113  A    between atoms: _283  and  _284
REMARK  114  A    between atoms: _283  and  _286
REMARK  115  A    between atoms: _286  and  _287
REMARK  116  A    between atoms: _290  and  _292
REMARK  117  A    between atoms: _292  and  _293
REMARK  118  A    between atoms: _292  and  _295
REMARK  119  A    between atoms: _295  and  _296
REMARK  120  A    between atoms: _299  and  _301
REMARK  121  A    between atoms: _301  and  _302
REMARK  122  A    between atoms: _301  and  _304
REMARK  123  A    between atoms: _304  and  _305
REMARK  124  A    between atoms: _308  and  _310
REMARK  125  A    between atoms: _310  and  _311
REMARK  126  A    between atoms: _310  and  _313
REMARK  127  A    between atoms: _313  and  _314
REMARK  128  A    between atoms: _317  and  _319
REMARK  129  A    between atoms: _319  and  _320
REMARK  130  A    between atoms: _319  and  _322
REMARK  131  A    between atoms: _322  and  _323
REMARK  132  A    between atoms: _326  and  _328
REMARK  133  A    between atoms: _328  and  _329
REMARK  134  A    between atoms: _331  and  _333
REMARK  135  A    between atoms: _333  and  _334
REMARK  136  A    between atoms: _337  and  _339
REMARK  137  A    between atoms: _339  and  _340
REMARK  138  A    between atoms: _339  and  _342
REMARK  139  A    between atoms: _342  and  _343
REMARK  140  A    between atoms: _346  and  _348
REMARK  141  A    between atoms: _348  and  _349
REMARK  142  A    between atoms: _348  and  _351
REMARK  143  A    between atoms: _351  and  _352
REMARK  144  A    between atoms: _357  and  _359
REMARK  145  A    between atoms: _359  and  _360
REMARK  146  A    between atoms: _359  and  _362
REMARK  147  A    between atoms: _362  and  _363
REMARK  148  A    between atoms: _366  and  _368
REMARK  149  A    between atoms: _368  and  _369
REMARK  150  A    between atoms: _368  and  _371
REMARK  151  A    between atoms: _374  and  _376
REMARK  152  A    between atoms: _376  and  _377
REMARK  153  A    between atoms: _376  and  _379
REMARK  154  A    between atoms: _379  and  _380
REMARK  155  A    between atoms: _380  and  _381
REMARK  156  A    between atoms: _381  and  _382
REMARK  157  A    between atoms: _382  and  _383
REMARK  158  A    between atoms: _387  and  _389
REMARK  159  A    between atoms: _389  and  _390
REMARK  160  A    between atoms: _389  and  _392
REMARK  161  A    between atoms: _392  and  _393
REMARK  162  A    between atoms: _393  and  _394
REMARK  163  A    between atoms: _396  and  _398
REMARK  164  A    between atoms: _398  and  _399
REMARK  165  A    between atoms: _398  and  _401
REMARK  166  A    between atoms: _401  and  _402
REMARK  167  A    between atoms: _405  and  _407
REMARK  168  A    between atoms: _407  and  _408
REMARK  169  A    between atoms: _410  and  _412
REMARK  170  A    between atoms: _412  and  _413
REMARK  171  A    between atoms: _415  and  _417
REMARK  172  A    between atoms: _417  and  _418
REMARK  173  A    between atoms: _417  and  _420
REMARK  174  A    between atoms: _420  and  _421
REMARK  175  A    between atoms: _424  and  _426
REMARK  176  A    between atoms: _426  and  _427
REMARK  177  A    between atoms: _429  and  _431
REMARK  178  A    between atoms: _431  and  _432
REMARK  179  A    between atoms: _434  and  _436
REMARK  180  A    between atoms: _436  and  _437
REMARK  181  A    between atoms: _436  and  _439
REMARK  182  A    between atoms: _439  and  _440
REMARK  183  A    between atoms: _446  and  _448
REMARK  184  A    between atoms: _448  and  _449
REMARK  185  A    between atoms: _448  and  _451
REMARK  186  A    between atoms: _451  and  _452
REMARK  187  A    between atoms: _455  and  _457
REMARK  188  A    between atoms: _457  and  _458
REMARK  189  A    between atoms: _457  and  _460
REMARK  190  A    between atoms: _463  and  _465
REMARK  191  A    between atoms: _465  and  _466
REMARK  192  A    between atoms: _465  and  _468
REMARK  193  A    between atoms: _468  and  _469
REMARK  194  A    between atoms: _472  and  _474
REMARK  195  A    between atoms: _474  and  _475
REMARK  196  A    between atoms: _474  and  _477
REMARK  197  A    between atoms: _477  and  _478
REMARK  198  A    between atoms: _482  and  _483
REMARK  199  A    between atoms: _488  and  _490
REMARK  200  A    between atoms: _490  and  _491
REMARK  201  A    between atoms: _490  and  _493
REMARK  202  A    between atoms: _496  and  _498
REMARK  203  A    between atoms: _498  and  _499
REMARK  204  A    between atoms: _498  and  _501
REMARK  205  A    between atoms: _501  and  _502
REMARK  206  A    between atoms: _507  and  _509
REMARK  207  A    between atoms: _509  and  _510
REMARK  208  A    between atoms: _509  and  _512
REMARK  209  A    between atoms: _512  and  _513
REMARK  210  A    between atoms: _516  and  _518
REMARK  211  A    between atoms: _518  and  _519
REMARK  212  A    between atoms: _518  and  _521
REMARK  213  A    between atoms: _521  and  _522
REMARK  214  A    between atoms: _525  and  _527
REMARK  215  A    between atoms: _527  and  _528
REMARK  216  A    between atoms: _530  and  _532
REMARK  217  A    between atoms: _532  and  _533
REMARK  218  A    between atoms: _532  and  _535
REMARK  219  A    between atoms: _535  and  _536
REMARK  220  A    between atoms: _536  and  _537
REMARK  221  A    between atoms: _537  and  _538
REMARK  222  A    between atoms: _547  and  _549
REMARK  223  A    between atoms: _549  and  _550
REMARK  224  A    between atoms: _549  and  _552
REMARK  225  A    between atoms: _552  and  _553
REMARK                            x       y       z     vdW  Elec       q    Type
REMARK                         _______ _______ _______ _____ _____    ______ ____
ROOT
ATOM      1  CA  ILE A   1     -22.565  56.260  -3.133  0.00  0.00    +0.133 C 
ENDROOT
BRANCH   1   2
ATOM      2  N   ILE A   1     -22.247  54.979  -2.473  0.00  0.00    -0.239 NA
ATOM      3  H   ILE A   1     -21.341  54.510  -2.676  0.00  0.00    +0.142 HD
ENDBRANCH   1   2
BRANCH   1   4
ATOM      4  CB  ILE A   1     -21.692  57.443  -2.625  0.00  0.00    +0.023 C 
ATOM      5  CG2 ILE A   1     -21.948  57.704  -1.144  0.00  0.00    +0.002 C 
BRANCH   4   6
ATOM      6  CG1 ILE A   1     -20.201  57.226  -2.929  0.00  0.00    +0.002 C 
ATOM      7  CD1 ILE A   1     -19.335  58.460  -2.698  0.00  0.00    +0.000 C 
ENDBRANCH   4   6
ENDBRANCH   1   4
BRANCH   1   8
ATOM      8  C   ILE A   1     -22.462  56.164  -4.649  0.00  0.00    +0.224 C 
ATOM      9  O   ILE A   1     -21.717  55.337  -5.174  0.00  0.00    -0.287 OA
ENDBRANCH   1   8
TORSDOF 4
REMARK  Name = ../refined-set-2016/2q63/2q63_pocket.pdb
REMARK  225 active torsions:
REMARK  status: ('A' for Active; 'I' for Inactive)
REMARK    1  A    between atoms: _1  and  _3
REMARK    2  A    between atoms: _3  and  _4
REMARK    3  A    between atoms: _3  and  _6
REMARK    4  A    between atoms: _6  and  _7
REMARK    5  A    between atoms: _7  and  _8
REMARK    6  A    between atoms: _8  and  _9
REMARK    7  A    between atoms: _18  and  _20
REMARK    8  A    between atoms: _20  and  _21
REMARK    9  A    between atoms: _20  and  _23
REMARK   10  A    between atoms: _23  and  _24
REMARK   11  A    between atoms: _27  and  _29
REMARK   12  A    between atoms: _29  and  _30
REMARK   13  A    between atoms: _29  and  _32
REMARK   14  A    between atoms: _32  and  _33
REMARK   15  A    between atoms: _36  and  _38
REMARK   16  A    between atoms: _38  and  _39
REMARK   17  A    between atoms: _38  and  _41
REMARK   18  A    between atoms: _41  and  _42
REMARK   19  A    between atoms: _45  and  _47
REMARK   20  A    between atoms: _47  and  _48
REMARK   21  A    between atoms: _47  and  _50
REMARK   22  A    between atoms: _50  and  _51
REMARK   23  A    between atoms: _54  and  _56
REMARK   24  A    between atoms: _56  and  _57
REMARK   25  A    between atoms: _59  and  _61
REMARK   26  A    between atoms: _61  and  _62
REMARK   27  A    between atoms: _65  and  _67
REMARK   28  A    between atoms: _67  and  _68
REMARK   29  A    between atoms: _67  and  _70
REMARK   30  A    between atoms: _70  and  _71
REMARK   31  A    between atoms: _74  and  _76
REMARK   32  A    between atoms: _76  and  _77
REMARK   33  A    between atoms: _76  and  _79
REMARK   34  A    between atoms: _79  and  _80
REMARK   35  A    between atoms: _85  and  _87
REMARK   36  A    between atoms: _87  and  _88
REMARK   37  A    between atoms: _87  and  _90
REMARK   38  A    between atoms: _90  and  _91
REMARK   39  A    between atoms: _94  and  _96
REMARK   40  A    between atoms: _96  and  _97
REMARK   41  A    between atoms: _96  and  _99
REMARK   42  A    between atoms: _102  and  _104
REMARK   43  A    between atoms: _104  and  _105
REMARK   44  A    between atoms: _104  and  _107
REMARK   45  A    between atoms: _107  and  _108
REMARK   46  A    between atoms: _108  and  _109
REMARK   47  A    between atoms: _109  and  _110
REMARK   48  A    between atoms: _110  and  _111
REMARK   49  A    between atoms: _115  and  _117
REMARK   50  A    between atoms: _117  and  _118
REMARK   51  A    between atoms: _117  and  _120
REMARK   52  A    between atoms: _120  and  _121
REMARK   53  A    between atoms: _124  and  _126
REMARK   54  A    between atoms: _126  and  _127
REMARK   55  A    between atoms: _129  and  _131
REMARK   56  A    between atoms: _131  and  _132
REMARK   57  A    between atoms: _134  and  _136
REMARK   58  A    between atoms: _136  and  _137
REMARK   59  A    between atoms: _136  and  _139
REMARK   60  A    between atoms: _139  and  _140
REMARK   61  A    between atoms: _143  and  _145
REMARK   62  A    between atoms: _145  and  _146
REMARK   63  A    between atoms: _148  and  _150
REMARK   64  A    between atoms: _150  and  _151
REMARK   65  A    between atoms: _153  and  _155
REMARK   66  A    between atoms: _155  and  _156
REMARK   67  A    between atoms: _155  and  _158
REMARK   68  A    between atoms: _158  and  _159
REMARK   69  A    between atoms: _162  and  _164
REMARK   70  A    between atoms: _164  and  _165
REMARK   71  A    between atoms: _164  and  _167
REMARK   72  A    between atoms: _167  and  _168
REMARK   73  A    between atoms: _172  and  _173
REMARK   74  A    between atoms: _178  and  _180
REMARK   75  A    between atoms: _180  and  _181
REMARK   76  A    between atoms: _180  and  _183
REMARK   77  A    between atoms: _183  and  _184
REMARK   78  A    between atoms: _188  and  _189
REMARK   79  A    between atoms: _194  and  _196
REMARK   80  A    between atoms: _196  and  _197
REMARK   81  A    between atoms: _196  and  _199
REMARK   82  A    between atoms: _202  and  _204
REMARK   83  A    between atoms: _204  and  _205
REMARK   84  A    between atoms: _204  and  _207
REMARK   85  A    between atoms: _207  and  _208
REMARK   86  A    between atoms: _213  and  _215
REMARK   87  A    between atoms: _215  and  _216
REMARK   88  A    between atoms: _215  and  _218
REMARK   89  A    between atoms: _218  and  _219
REMARK   90  A    between atoms: _222  and  _224
REMARK   91  A    between atoms: _224  and  _225
REMARK   92  A    between atoms: _224  and  _227
REMARK   93  A    between atoms: _227  and  _228
REMARK   94  A    between atoms: _231  and  _233
REMARK   95  A    between atoms: _233  and  _234
REMARK   96  A    between atoms: _236  and  _238
REMARK   97  A    between atoms: _238  and  _239
REMARK   98  A    between atoms: _238  and  _241
REMARK   99  A    between atoms: _241  and  _242
REMARK  100  A    between atoms: _242  and  _243
REMARK  101  A    between atoms: _243  and  _244
REMARK  102  A    between atoms: _253  and  _255
REMARK  103  A    between atoms: _255  and  _256
REMARK  104  A    between atoms: _255  and  _258
REMARK  105  A    between atoms: _258  and  _259
REMARK  106  A    between atoms: _264  and  _266
REMARK  107  A    between atoms: _266  and  _267
REMARK  108  A    between atoms: _266  and  _269
REMARK  109  A    between atoms: _269  and  _270
REMARK  110  A    between atoms: _270  and  _271
REMARK  111  A    between atoms: _271  and  _272
REMARK  112  A    between atoms: _281  and  _283
REMARK  113  A    between atoms: _283  and  _284
REMARK  114  A    between atoms: _283  and  _286
REMARK  115  A    between atoms: _286  and  _287
REMARK  116  A    between atoms: _290  and  _292
REMARK  117  A    between atoms: _292  and  _293
REMARK  118  A    between atoms: _292  and  _295
REMARK  119  A    between atoms: _295  and  _296
REMARK  120  A    between atoms: _299  and  _301
REMARK  121  A    between atoms: _301  and  _302
REMARK  122  A    between atoms: _301  and  _304
REMARK  123  A    between atoms: _304  and  _305
REMARK  124  A    between atoms: _308  and  _310
REMARK  125  A    between atoms: _310  and  _311
REMARK  126  A    between atoms: _310  and  _313
REMARK  127  A    between atoms: _313  and  _314
REMARK  128  A    between atoms: _317  and  _319
REMARK  129  A    between atoms: _319  and  _320
REMARK  130  A    between atoms: _319  and  _322
REMARK  131  A    between atoms: _322  and  _323
REMARK  132  A    between atoms: _326  and  _328
REMARK  133  A    between atoms: _328  and  _329
REMARK  134  A    between atoms: _331  and  _333
REMARK  135  A    between atoms: _333  and  _334
REMARK  136  A    between atoms: _337  and  _339
REMARK  137  A    between atoms: _339  and  _340
REMARK  138  A    between atoms: _339  and  _342
REMARK  139  A    between atoms: _342  and  _343
REMARK  140  A    between atoms: _346  and  _348
REMARK  141  A    between atoms: _348  and  _349
REMARK  142  A    between atoms: _348  and  _351
REMARK  143  A    between atoms: _351  and  _352
REMARK  144  A    between atoms: _357  and  _359
REMARK  145  A    between atoms: _359  and  _360
REMARK  146  A    between atoms: _359  and  _362
REMARK  147  A    between atoms: _362  and  _363
REMARK  148  A    between atoms: _366  and  _368
REMARK  149  A    between atoms: _368  and  _369
REMARK  150  A    between atoms: _368  and  _371
REMARK  151  A    between atoms: _374  and  _376
REMARK  152  A    between atoms: _376  and  _377
REMARK  153  A    between atoms: _376  and  _379
REMARK  154  A    between atoms: _379  and  _380
REMARK  155  A    between atoms: _380  and  _381
REMARK  156  A    between atoms: _381  and  _382
REMARK  157  A    between atoms: _382  and  _383
REMARK  158  A    between atoms: _387  and  _389
REMARK  159  A    between atoms: _389  and  _390
REMARK  160  A    between atoms: _389  and  _392
REMARK  161  A    between atoms: _392  and  _393
REMARK  162  A    between atoms: _393  and  _394
REMARK  163  A    between atoms: _396  and  _398
REMARK  164  A    between atoms: _398  and  _399
REMARK  165  A    between atoms: _398  and  _401
REMARK  166  A    between atoms: _401  and  _402
REMARK  167  A    between atoms: _405  and  _407
REMARK  168  A    between atoms: _407  and  _408
REMARK  169  A    between atoms: _410  and  _412
REMARK  170  A    between atoms: _412  and  _413
REMARK  171  A    between atoms: _415  and  _417
REMARK  172  A    between atoms: _417  and  _418
REMARK  173  A    between atoms: _417  and  _420
REMARK  174  A    between atoms: _420  and  _421
REMARK  175  A    between atoms: _424  and  _426
REMARK  176  A    between atoms: _426  and  _427
REMARK  177  A    between atoms: _429  and  _431
REMARK  178  A    between atoms: _431  and  _432
REMARK  179  A    between atoms: _434  and  _436
REMARK  180  A    between atoms: _436  and  _437
REMARK  181  A    between atoms: _436  and  _439
REMARK  182  A    between atoms: _439  and  _440
REMARK  183  A    between atoms: _446  and  _448
REMARK  184  A    between atoms: _448  and  _449
REMARK  185  A    between atoms: _448  and  _451
REMARK  186  A    between atoms: _451  and  _452
REMARK  187  A    between atoms: _455  and  _457
REMARK  188  A    between atoms: _457  and  _458
REMARK  189  A    between atoms: _457  and  _460
REMARK  190  A    between atoms: _463  and  _465
REMARK  191  A    between atoms: _465  and  _466
REMARK  192  A    between atoms: _465  and  _468
REMARK  193  A    between atoms: _468  and  _469
REMARK  194  A    between atoms: _472  and  _474
REMARK  195  A    between atoms: _474  and  _475
REMARK  196  A    between atoms: _474  and  _477
REMARK  197  A    between atoms: _477  and  _478
REMARK  198  A    between atoms: _482  and  _483
REMARK  199  A    between atoms: _488  and  _490
REMARK  200  A    between atoms: _490  and  _491
REMARK  201  A    between atoms: _490  and  _493
REMARK  202  A    between atoms: _496  and  _498
REMARK  203  A    between atoms: _498  and  _499
REMARK  204  A    between atoms: _498  and  _501
REMARK  205  A    between atoms: _501  and  _502
REMARK  206  A    between atoms: _507  and  _509
REMARK  207  A    between atoms: _509  and  _510
REMARK  208  A    between atoms: _509  and  _512
REMARK  209  A    between atoms: _512  and  _513
REMARK  210  A    between atoms: _516  and  _518
REMARK  211  A    between atoms: _518  and  _519
REMARK  212  A    between atoms: _518  and  _521
REMARK  213  A    between atoms: _521  and  _522
REMARK  214  A    between atoms: _525  and  _527
REMARK  215  A    between atoms: _527  and  _528
REMARK  216  A    between atoms: _530  and  _532
REMARK  217  A    between atoms: _532  and  _533
REMARK  218  A    between atoms: _532  and  _535
REMARK  219  A    between atoms: _535  and  _536
REMARK  220  A    between atoms: _536  and  _537
REMARK  221  A    between atoms: _537  and  _538
REMARK  222  A    between atoms: _547  and  _549
REMARK  223  A    between atoms: _549  and  _550
REMARK  224  A    between atoms: _549  and  _552
REMARK  225  A    between atoms: _552  and  _553
REMARK                            x       y       z     vdW  Elec       q    Type
REMARK                         _______ _______ _______ _____ _____    ______ ____
ROOT
ATOM      1  CA  LEU A   1     -14.176  59.355  -9.176  0.00  0.00    +0.133 C 
ENDROOT
BRANCH   1   2
ATOM      2  N   LEU A   1     -12.731  59.427  -9.412  0.00  0.00    -0.239 NA
ATOM      3  H   LEU A   1     -12.082  59.165  -8.642  0.00  0.00    +0.142 HD
ENDBRANCH   1   2
BRANCH   1   4
ATOM      4  C   LEU A   1     -14.693  60.650  -8.517  0.00  0.00    +0.224 C 
ATOM      5  O   LEU A   1     -14.069  61.171  -7.586  0.00  0.00    -0.287 OA
ENDBRANCH   1   4
BRANCH   1   6
ATOM      6  CB  LEU A   1     -14.523  58.116  -8.328  0.00  0.00    +0.025 C 
BRANCH   6   7
ATOM      7  CG  LEU A   1     -13.933  56.739  -8.704  0.00  0.00    +0.002 C 
ATOM      8  CD2 LEU A   1     -14.476  55.656  -7.772  0.00  0.00    +0.000 C 
ATOM      9  CD1 LEU A   1     -14.178  56.323 -10.171  0.00  0.00    +0.000 C 
ENDBRANCH   6   7
ENDBRANCH   1   6
TORSDOF 4
REMARK  Name = ../refined-set-2016/2q63/2q63_pocket.pdb
REMARK  225 active torsions:
REMARK  status: ('A' for Active; 'I' for Inactive)
REMARK    1  A    between atoms: _1  and  _3
REMARK    2  A    between atoms: _3  and  _4
REMARK    3  A    between atoms: _3  and  _6
REMARK    4  A    between atoms: _6  and  _7
REMARK    5  A    between atoms: _7  and  _8
REMARK    6  A    between atoms: _8  and  _9
REMARK    7  A    between atoms: _18  and  _20
REMARK    8  A    between atoms: _20  and  _21
REMARK    9  A    between atoms: _20  and  _23
REMARK   10  A    between atoms: _23  and  _24
REMARK   11  A    between atoms: _27  and  _29
REMARK   12  A    between atoms: _29  and  _30
REMARK   13  A    between atoms: _29  and  _32
REMARK   14  A    between atoms: _32  and  _33
REMARK   15  A    between atoms: _36  and  _38
REMARK   16  A    between atoms: _38  and  _39
REMARK   17  A    between atoms: _38  and  _41
REMARK   18  A    between atoms: _41  and  _42
REMARK   19  A    between atoms: _45  and  _47
REMARK   20  A    between atoms: _47  and  _48
REMARK   21  A    between atoms: _47  and  _50
REMARK   22  A    between atoms: _50  and  _51
REMARK   23  A    between atoms: _54  and  _56
REMARK   24  A    between atoms: _56  and  _57
REMARK   25  A    between atoms: _59  and  _61
REMARK   26  A    between atoms: _61  and  _62
REMARK   27  A    between atoms: _65  and  _67
REMARK   28  A    between atoms: _67  and  _68
REMARK   29  A    between atoms: _67  and  _70
REMARK   30  A    between atoms: _70  and  _71
REMARK   31  A    between atoms: _74  and  _76
REMARK   32  A    between atoms: _76  and  _77
REMARK   33  A    between atoms: _76  and  _79
REMARK   34  A    between atoms: _79  and  _80
REMARK   35  A    between atoms: _85  and  _87
REMARK   36  A    between atoms: _87  and  _88
REMARK   37  A    between atoms: _87  and  _90
REMARK   38  A    between atoms: _90  and  _91
REMARK   39  A    between atoms: _94  and  _96
REMARK   40  A    between atoms: _96  and  _97
REMARK   41  A    between atoms: _96  and  _99
REMARK   42  A    between atoms: _102  and  _104
REMARK   43  A    between atoms: _104  and  _105
REMARK   44  A    between atoms: _104  and  _107
REMARK   45  A    between atoms: _107  and  _108
REMARK   46  A    between atoms: _108  and  _109
REMARK   47  A    between atoms: _109  and  _110
REMARK   48  A    between atoms: _110  and  _111
REMARK   49  A    between atoms: _115  and  _117
REMARK   50  A    between atoms: _117  and  _118
REMARK   51  A    between atoms: _117  and  _120
REMARK   52  A    between atoms: _120  and  _121
REMARK   53  A    between atoms: _124  and  _126
REMARK   54  A    between atoms: _126  and  _127
REMARK   55  A    between atoms: _129  and  _131
REMARK   56  A    between atoms: _131  and  _132
REMARK   57  A    between atoms: _134  and  _136
REMARK   58  A    between atoms: _136  and  _137
REMARK   59  A    between atoms: _136  and  _139
REMARK   60  A    between atoms: _139  and  _140
REMARK   61  A    between atoms: _143  and  _145
REMARK   62  A    between atoms: _145  and  _146
REMARK   63  A    between atoms: _148  and  _150
REMARK   64  A    between atoms: _150  and  _151
REMARK   65  A    between atoms: _153  and  _155
REMARK   66  A    between atoms: _155  and  _156
REMARK   67  A    between atoms: _155  and  _158
REMARK   68  A    between atoms: _158  and  _159
REMARK   69  A    between atoms: _162  and  _164
REMARK   70  A    between atoms: _164  and  _165
REMARK   71  A    between atoms: _164  and  _167
REMARK   72  A    between atoms: _167  and  _168
REMARK   73  A    between atoms: _172  and  _173
REMARK   74  A    between atoms: _178  and  _180
REMARK   75  A    between atoms: _180  and  _181
REMARK   76  A    between atoms: _180  and  _183
REMARK   77  A    between atoms: _183  and  _184
REMARK   78  A    between atoms: _188  and  _189
REMARK   79  A    between atoms: _194  and  _196
REMARK   80  A    between atoms: _196  and  _197
REMARK   81  A    between atoms: _196  and  _199
REMARK   82  A    between atoms: _202  and  _204
REMARK   83  A    between atoms: _204  and  _205
REMARK   84  A    between atoms: _204  and  _207
REMARK   85  A    between atoms: _207  and  _208
REMARK   86  A    between atoms: _213  and  _215
REMARK   87  A    between atoms: _215  and  _216
REMARK   88  A    between atoms: _215  and  _218
REMARK   89  A    between atoms: _218  and  _219
REMARK   90  A    between atoms: _222  and  _224
REMARK   91  A    between atoms: _224  and  _225
REMARK   92  A    between atoms: _224  and  _227
REMARK   93  A    between atoms: _227  and  _228
REMARK   94  A    between atoms: _231  and  _233
REMARK   95  A    between atoms: _233  and  _234
REMARK   96  A    between atoms: _236  and  _238
REMARK   97  A    between atoms: _238  and  _239
REMARK   98  A    between atoms: _238  and  _241
REMARK   99  A    between atoms: _241  and  _242
REMARK  100  A    between atoms: _242  and  _243
REMARK  101  A    between atoms: _243  and  _244
REMARK  102  A    between atoms: _253  and  _255
REMARK  103  A    between atoms: _255  and  _256
REMARK  104  A    between atoms: _255  and  _258
REMARK  105  A    between atoms: _258  and  _259
REMARK  106  A    between atoms: _264  and  _266
REMARK  107  A    between atoms: _266  and  _267
REMARK  108  A    between atoms: _266  and  _269
REMARK  109  A    between atoms: _269  and  _270
REMARK  110  A    between atoms: _270  and  _271
REMARK  111  A    between atoms: _271  and  _272
REMARK  112  A    between atoms: _281  and  _283
REMARK  113  A    between atoms: _283  and  _284
REMARK  114  A    between atoms: _283  and  _286
REMARK  115  A    between atoms: _286  and  _287
REMARK  116  A    between atoms: _290  and  _292
REMARK  117  A    between atoms: _292  and  _293
REMARK  118  A    between atoms: _292  and  _295
REMARK  119  A    between atoms: _295  and  _296
REMARK  120  A    between atoms: _299  and  _301
REMARK  121  A    between atoms: _301  and  _302
REMARK  122  A    between atoms: _301  and  _304
REMARK  123  A    between atoms: _304  and  _305
REMARK  124  A    between atoms: _308  and  _310
REMARK  125  A    between atoms: _310  and  _311
REMARK  126  A    between atoms: _310  and  _313
REMARK  127  A    between atoms: _313  and  _314
REMARK  128  A    between atoms: _317  and  _319
REMARK  129  A    between atoms: _319  and  _320
REMARK  130  A    between atoms: _319  and  _322
REMARK  131  A    between atoms: _322  and  _323
REMARK  132  A    between atoms: _326  and  _328
REMARK  133  A    between atoms: _328  and  _329
REMARK  134  A    between atoms: _331  and  _333
REMARK  135  A    between atoms: _333  and  _334
REMARK  136  A    between atoms: _337  and  _339
REMARK  137  A    between atoms: _339  and  _340
REMARK  138  A    between atoms: _339  and  _342
REMARK  139  A    between atoms: _342  and  _343
REMARK  140  A    between atoms: _346  and  _348
REMARK  141  A    between atoms: _348  and  _349
REMARK  142  A    between atoms: _348  and  _351
REMARK  143  A    between atoms: _351  and  _352
REMARK  144  A    between atoms: _357  and  _359
REMARK  145  A    between atoms: _359  and  _360
REMARK  146  A    between atoms: _359  and  _362
REMARK  147  A    between atoms: _362  and  _363
REMARK  148  A    between atoms: _366  and  _368
REMARK  149  A    between atoms: _368  and  _369
REMARK  150  A    between atoms: _368  and  _371
REMARK  151  A    between atoms: _374  and  _376
REMARK  152  A    between atoms: _376  and  _377
REMARK  153  A    between atoms: _376  and  _379
REMARK  154  A    between atoms: _379  and  _380
REMARK  155  A    between atoms: _380  and  _381
REMARK  156  A    between atoms: _381  and  _382
REMARK  157  A    between atoms: _382  and  _383
REMARK  158  A    between atoms: _387  and  _389
REMARK  159  A    between atoms: _389  and  _390
REMARK  160  A    between atoms: _389  and  _392
REMARK  161  A    between atoms: _392  and  _393
REMARK  162  A    between atoms: _393  and  _394
REMARK  163  A    between atoms: _396  and  _398
REMARK  164  A    between atoms: _398  and  _399
REMARK  165  A    between atoms: _398  and  _401
REMARK  166  A    between atoms: _401  and  _402
REMARK  167  A    between atoms: _405  and  _407
REMARK  168  A    between atoms: _407  and  _408
REMARK  169  A    between atoms: _410  and  _412
REMARK  170  A    between atoms: _412  and  _413
REMARK  171  A    between atoms: _415  and  _417
REMARK  172  A    between atoms: _417  and  _418
REMARK  173  A    between atoms: _417  and  _420
REMARK  174  A    between atoms: _420  and  _421
REMARK  175  A    between atoms: _424  and  _426
REMARK  176  A    between atoms: _426  and  _427
REMARK  177  A    between atoms: _429  and  _431
REMARK  178  A    between atoms: _431  and  _432
REMARK  179  A    between atoms: _434  and  _436
REMARK  180  A    between atoms: _436  and  _437
REMARK  181  A    between atoms: _436  and  _439
REMARK  182  A    between atoms: _439  and  _440
REMARK  183  A    between atoms: _446  and  _448
REMARK  184  A    between atoms: _448  and  _449
REMARK  185  A    between atoms: _448  and  _451
REMARK  186  A    between atoms: _451  and  _452
REMARK  187  A    between atoms: _455  and  _457
REMARK  188  A    between atoms: _457  and  _458
REMARK  189  A    between atoms: _457  and  _460
REMARK  190  A    between atoms: _463  and  _465
REMARK  191  A    between atoms: _465  and  _466
REMARK  192  A    between atoms: _465  and  _468
REMARK  193  A    between atoms: _468  and  _469
REMARK  194  A    between atoms: _472  and  _474
REMARK  195  A    between atoms: _474  and  _475
REMARK  196  A    between atoms: _474  and  _477
REMARK  197  A    between atoms: _477  and  _478
REMARK  198  A    between atoms: _482  and  _483
REMARK  199  A    between atoms: _488  and  _490
REMARK  200  A    between atoms: _490  and  _491
REMARK  201  A    between atoms: _490  and  _493
REMARK  202  A    between atoms: _496  and  _498
REMARK  203  A    between atoms: _498  and  _499
REMARK  204  A    between atoms: _498  and  _501
REMARK  205  A    between atoms: _501  and  _502
REMARK  206  A    between atoms: _507  and  _509
REMARK  207  A    between atoms: _509  and  _510
REMARK  208  A    between atoms: _509  and  _512
REMARK  209  A    between atoms: _512  and  _513
REMARK  210  A    between atoms: _516  and  _518
REMARK  211  A    between atoms: _518  and  _519
REMARK  212  A    between atoms: _518  and  _521
REMARK  213  A    between atoms: _521  and  _522
REMARK  214  A    between atoms: _525  and  _527
REMARK  215  A    between atoms: _527  and  _528
REMARK  216  A    between atoms: _530  and  _532
REMARK  217  A    between atoms: _532  and  _533
REMARK  218  A    between atoms: _532  and  _535
REMARK  219  A    between atoms: _535  and  _536
REMARK  220  A    between atoms: _536  and  _537
REMARK  221  A    between atoms: _537  and  _538
REMARK  222  A    between atoms: _547  and  _549
REMARK  223  A    between atoms: _549  and  _550
REMARK  224  A    between atoms: _549  and  _552
REMARK  225  A    between atoms: _552  and  _553
REMARK                            x       y       z     vdW  Elec       q    Type
REMARK                         _______ _______ _______ _____ _____    ______ ____
ROOT
ATOM      1  CA  ILE A   6      -9.508  60.589  -1.076  0.00  0.00    +0.149 C 
ENDROOT
BRANCH   1   2
ATOM      2  C   ILE A   6      -8.587  60.243  -2.225  0.00  0.00    +0.241 C 
ATOM      3  N   ILE A   7      -7.286  60.170  -1.962  0.00  0.00    -0.297 N 
ATOM      4  H   ILE A   7      -6.932  60.483  -1.036  0.00  0.00    +0.150 HD
ATOM      5  O   ILE A   6      -9.051  60.010  -3.338  0.00  0.00    -0.273 OA
BRANCH   3   6
ATOM      6  CA  ILE A   7      -6.341  59.652  -2.963  0.00  0.00    +0.149 C 
BRANCH   6   7
ATOM      7  C   ILE A   7      -6.119  58.184  -2.669  0.00  0.00    +0.241 C 
ATOM      8  O   ILE A   7      -5.552  57.827  -1.626  0.00  0.00    -0.273 OA
ATOM      9  N   GLY A   8      -6.558  57.326  -3.582  0.00  0.00    -0.295 N 
ATOM     10  H   GLY A   8      -6.955  57.687  -4.473  0.00  0.00    +0.150 HD
BRANCH   9  11
ATOM     11  CA  GLY A   8      -6.494  55.884  -3.358  0.00  0.00    +0.176 C 
BRANCH  11  12
ATOM     12  C   GLY A   8      -5.249  55.274  -3.951  0.00  0.00    +0.243 C 
ATOM     13  N   ARG A   9      -5.200  53.942  -3.930  0.00  0.00    -0.297 N 
ATOM     14  H   ARG A   9      -6.047  53.413  -3.640  0.00  0.00    +0.150 HD
ATOM     15  O   GLY A   8      -4.343  55.990  -4.420  0.00  0.00    -0.273 OA
BRANCH  13  16
ATOM     16  CA  ARG A   9      -3.993  53.198  -4.302  0.00  0.00    +0.149 C 
BRANCH  16  17
ATOM     17  C   ARG A   9      -3.645  53.377  -5.783  0.00  0.00    +0.241 C 
ATOM     18  O   ARG A   9      -2.461  53.378  -6.148  0.00  0.00    -0.273 OA
ATOM     19  N   ASN A  10      -4.673  53.541  -6.618  0.00  0.00    -0.298 N 
ATOM     20  H   ASN A  10      -5.638  53.570  -6.231  0.00  0.00    +0.150 HD
BRANCH  19  21
ATOM     21  CA  ASN A  10      -4.482  53.681  -8.062  0.00  0.00    +0.146 C 
BRANCH  21  22
ATOM     22  C   ASN A  10      -3.555  54.854  -8.419  0.00  0.00    +0.227 C 
ATOM     23  O   ASN A  10      -2.721  54.745  -9.343  0.00  0.00    -0.286 OA
ENDBRANCH  21  22
BRANCH  21  24
ATOM     24  CB  ASN A  10      -5.820  53.781  -8.804  0.00  0.00    +0.112 C 
BRANCH  24  25
ATOM     25  CG  ASN A  10      -6.520  55.112  -8.581  0.00  0.00    +0.222 C 
ATOM     26  OD1 ASN A  10      -6.858  55.452  -7.453  0.00  0.00    -0.275 OA
ATOM     27  ND2 ASN A  10      -6.758  55.862  -9.661  0.00  0.00    -0.329 N 
ATOM     28 HD21 ASN A  10      -7.248  56.774  -9.563  0.00  0.00    +0.145 HD
ATOM     29 HD22 ASN A  10      -6.453  55.534 -10.600  0.00  0.00    +0.145 HD
ENDBRANCH  24  25
ENDBRANCH  21  24
ENDBRANCH  19  21
ENDBRANCH  16  17
BRANCH  16  30
ATOM     30  CB  ARG A   9      -4.141  51.720  -3.956  0.00  0.00    +0.033 C 
BRANCH  30  31
ATOM     31  CG  ARG A   9      -4.045  51.394  -2.445  0.00  0.00    +0.045 C 
BRANCH  31  32
ATOM     32  CD  ARG A   9      -4.075  49.886  -2.179  0.00  0.00    +0.174 C 
BRANCH  32  33
ATOM     33  NE  ARG A   9      -5.274  49.252  -2.765  0.00  0.00    -0.265 N 
ATOM     34  HE  ARG A   9      -6.168  49.350  -2.243  0.00  0.00    +0.259 HD
ATOM     35  CZ  ARG A   9      -5.307  48.563  -3.909  0.00  0.00    +0.342 C 
ATOM     36  NH2 ARG A   9      -6.455  48.042  -4.316  0.00  0.00    -0.292 N 
ATOM     37 HH21 ARG A   9      -7.316  48.172  -3.747  0.00  0.00    +0.255 HD
ATOM     38 HH22 ARG A   9      -6.496  47.503  -5.205  0.00  0.00    +0.255 HD
ATOM     39  NH1 ARG A   9      -4.210  48.359  -4.643  0.00  0.00    -0.292 N 
ATOM     40 HH11 ARG A   9      -3.295  48.741  -4.328  0.00  0.00    +0.255 HD
ATOM     41 HH12 ARG A   9      -4.270  47.818  -5.529  0.00  0.00    +0.255 HD
ENDBRANCH  32  33
ENDBRANCH  31  32
ENDBRANCH  30  31
ENDBRANCH  16  30
ENDBRANCH  13  16
ENDBRANCH  11  12
ENDBRANCH   9  11
ENDBRANCH   6   7
BRANCH   6  42
ATOM     42  CB  ILE A   7      -4.979  60.400  -2.929  0.00  0.00    +0.027 C 
ATOM     43  CG2 ILE A   7      -3.985  59.824  -3.995  0.00  0.00    +0.002 C 
BRANCH  42  44
ATOM     44  CG1 ILE A   7      -5.170  61.916  -3.061  0.00  0.00    +0.002 C 
ATOM     45  CD1 ILE A   7      -6.118  62.352  -4.177  0.00  0.00    +0.000 C 
ENDBRANCH  42  44
ENDBRANCH   6  42
ENDBRANCH   3   6
ENDBRANCH   1   2
BRANCH   1  48
ATOM     46  C   ASN A   5     -10.184  62.899  -0.535  0.00  0.00    +0.241 C 
ATOM     47  O   ASN A   5      -9.427  62.998   0.438  0.00  0.00    -0.273 OA
ATOM     48  N   ILE A   6     -10.242  61.826  -1.326  0.00  0.00    -0.297 N 
ATOM     49  H   ILE A   6     -10.846  61.874  -2.171  0.00  0.00    +0.150 HD
BRANCH  46  50
ATOM     50  CA  ASN A   5     -11.130  64.047  -0.891  0.00  0.00    +0.158 C 
BRANCH  50  52
ATOM     51  C   VAL A   4     -12.744  63.645   0.861  0.00  0.00    +0.241 C 
ATOM     52  N   ASN A   5     -11.835  64.454   0.318  0.00  0.00    -0.297 N 
ATOM     53  H   ASN A   5     -11.629  65.374   0.756  0.00  0.00    +0.150 HD
ATOM     54  O   VAL A   4     -13.163  62.650   0.283  0.00  0.00    -0.273 OA
BRANCH  51  55
ATOM     55  CA  VAL A   4     -13.300  64.010   2.236  0.00  0.00    +0.149 C 
BRANCH  55  58
ATOM     56  C   PRO A   3     -15.595  64.561   2.758  0.00  0.00    +0.241 C 
ATOM     57  O   PRO A   3     -15.274  65.636   3.260  0.00  0.00    -0.273 OA
ATOM     58  N   VAL A   4     -14.712  63.735   2.208  0.00  0.00    -0.297 N 
ATOM     59  H   VAL A   4     -15.050  62.867   1.745  0.00  0.00    +0.150 HD
BRANCH  56  62
ATOM     60  C   THR A   2     -17.390  63.189   0.478  0.00  0.00    +0.246 C 
ATOM     61  N   PRO A   3     -17.341  63.002   1.812  0.00  0.00    -0.272 N 
ATOM     62  CA  PRO A   3     -17.076  64.140   2.705  0.00  0.00    +0.152 C 
ATOM     63  CB  PRO A   3     -17.519  63.616   4.060  0.00  0.00    +0.031 C 
ATOM     64  CG  PRO A   3     -17.248  62.172   3.990  0.00  0.00    +0.024 C 
ATOM     65  CD  PRO A   3     -17.537  61.754   2.569  0.00  0.00    +0.094 C 
ATOM     66  O   THR A   2     -17.260  64.293  -0.029  0.00  0.00    -0.273 OA
BRANCH  60  67
ATOM     67  CA  THR A   2     -17.634  61.961  -0.416  0.00  0.00    +0.176 C 
BRANCH  67  70
ATOM     68  C   PRO A   1     -19.842  62.331  -1.359  0.00  0.00    +0.239 C 
ATOM     69  O   PRO A   1     -20.424  61.756  -0.433  0.00  0.00    -0.274 OA
ATOM     70  N   THR A   2     -18.529  62.367  -1.478  0.00  0.00    -0.295 N 
ATOM     71  H   THR A   2     -18.119  62.702  -2.373  0.00  0.00    +0.150 HD
BRANCH  68  73
ATOM     72  N   PRO A   1     -20.386  62.512  -3.806  0.00  0.00    -0.210 NA
ATOM     73  CA  PRO A   1     -20.618  63.050  -2.461  0.00  0.00    +0.149 C 
ATOM     74  CB  PRO A   1     -22.125  62.872  -2.280  0.00  0.00    +0.028 C 
ATOM     75  CG  PRO A   1     -22.426  61.628  -3.050  0.00  0.00    +0.021 C 
ATOM     76  CD  PRO A   1     -21.474  61.603  -4.223  0.00  0.00    +0.089 C 
ENDBRANCH  68  73
ENDBRANCH  67  70
BRANCH  67  77
ATOM     77  CB  THR A   2     -16.312  61.463  -1.001  0.00  0.00    +0.137 C 
ATOM     78  CG2 THR A   2     -15.643  62.553  -1.841  0.00  0.00    +0.034 C 
BRANCH  77  79
ATOM     79  OG1 THR A   2     -15.443  61.084   0.067  0.00  0.00    -0.382 OA
ATOM     80  HG1 THR A   2     -15.277  61.867   0.649  0.00  0.00    +0.210 HD
ENDBRANCH  77  79
ENDBRANCH  67  77
ENDBRANCH  60  67
ENDBRANCH  56  62
ENDBRANCH  55  58
BRANCH  55  81
ATOM     81  CB  VAL A   4     -12.624  63.213   3.389  0.00  0.00    +0.027 C 
ATOM     82  CG2 VAL A   4     -12.955  63.843   4.752  0.00  0.00    +0.002 C 
ATOM     83  CG1 VAL A   4     -11.147  63.124   3.222  0.00  0.00    +0.002 C 
ENDBRANCH  55  81
ENDBRANCH  51  55
ENDBRANCH  50  52
BRANCH  50  84
ATOM     84  CB  ASN A   5     -10.349  65.205  -1.506  0.00  0.00    +0.114 C 
BRANCH  84  85
ATOM     85  CG  ASN A   5     -11.238  66.341  -1.952  0.00  0.00    +0.222 C 
ATOM     86  ND2 ASN A   5     -10.902  67.556  -1.522  0.00  0.00    -0.329 N 
ATOM     87 HD21 ASN A   5     -10.071  67.679  -0.909  0.00  0.00    +0.145 HD
ATOM     88 HD22 ASN A   5     -11.470  68.382  -1.800  0.00  0.00    +0.145 HD
ATOM     89  OD1 ASN A   5     -12.219  66.134  -2.686  0.00  0.00    -0.275 OA
ENDBRANCH  84  85
ENDBRANCH  50  84
ENDBRANCH  46  50
ENDBRANCH   1  48
BRANCH   1  90
ATOM     90  CB  ILE A   6     -10.471  59.402  -0.980  0.00  0.00    +0.027 C 
ATOM     91  CG2 ILE A   6      -9.712  58.088  -0.756  0.00  0.00    +0.002 C 
BRANCH  90  92
ATOM     92  CG1 ILE A   6     -11.529  59.655   0.087  0.00  0.00    +0.002 C 
ATOM     93  CD1 ILE A   6     -11.149  59.123   1.405  0.00  0.00    +0.000 C 
ENDBRANCH  90  92
ENDBRANCH   1  90
TORSDOF 33
REMARK  Name = ../refined-set-2016/2q63/2q63_pocket.pdb
REMARK  225 active torsions:
REMARK  status: ('A' for Active; 'I' for Inactive)
REMARK    1  A    between atoms: _1  and  _3
REMARK    2  A    between atoms: _3  and  _4
REMARK    3  A    between atoms: _3  and  _6
REMARK    4  A    between atoms: _6  and  _7
REMARK    5  A    between atoms: _7  and  _8
REMARK    6  A    between atoms: _8  and  _9
REMARK    7  A    between atoms: _18  and  _20
REMARK    8  A    between atoms: _20  and  _21
REMARK    9  A    between atoms: _20  and  _23
REMARK   10  A    between atoms: _23  and  _24
REMARK   11  A    between atoms: _27  and  _29
REMARK   12  A    between atoms: _29  and  _30
REMARK   13  A    between atoms: _29  and  _32
REMARK   14  A    between atoms: _32  and  _33
REMARK   15  A    between atoms: _36  and  _38
REMARK   16  A    between atoms: _38  and  _39
REMARK   17  A    between atoms: _38  and  _41
REMARK   18  A    between atoms: _41  and  _42
REMARK   19  A    between atoms: _45  and  _47
REMARK   20  A    between atoms: _47  and  _48
REMARK   21  A    between atoms: _47  and  _50
REMARK   22  A    between atoms: _50  and  _51
REMARK   23  A    between atoms: _54  and  _56
REMARK   24  A    between atoms: _56  and  _57
REMARK   25  A    between atoms: _59  and  _61
REMARK   26  A    between atoms: _61  and  _62
REMARK   27  A    between atoms: _65  and  _67
REMARK   28  A    between atoms: _67  and  _68
REMARK   29  A    between atoms: _67  and  _70
REMARK   30  A    between atoms: _70  and  _71
REMARK   31  A    between atoms: _74  and  _76
REMARK   32  A    between atoms: _76  and  _77
REMARK   33  A    between atoms: _76  and  _79
REMARK   34  A    between atoms: _79  and  _80
REMARK   35  A    between atoms: _85  and  _87
REMARK   36  A    between atoms: _87  and  _88
REMARK   37  A    between atoms: _87  and  _90
REMARK   38  A    between atoms: _90  and  _91
REMARK   39  A    between atoms: _94  and  _96
REMARK   40  A    between atoms: _96  and  _97
REMARK   41  A    between atoms: _96  and  _99
REMARK   42  A    between atoms: _102  and  _104
REMARK   43  A    between atoms: _104  and  _105
REMARK   44  A    between atoms: _104  and  _107
REMARK   45  A    between atoms: _107  and  _108
REMARK   46  A    between atoms: _108  and  _109
REMARK   47  A    between atoms: _109  and  _110
REMARK   48  A    between atoms: _110  and  _111
REMARK   49  A    between atoms: _115  and  _117
REMARK   50  A    between atoms: _117  and  _118
REMARK   51  A    between atoms: _117  and  _120
REMARK   52  A    between atoms: _120  and  _121
REMARK   53  A    between atoms: _124  and  _126
REMARK   54  A    between atoms: _126  and  _127
REMARK   55  A    between atoms: _129  and  _131
REMARK   56  A    between atoms: _131  and  _132
REMARK   57  A    between atoms: _134  and  _136
REMARK   58  A    between atoms: _136  and  _137
REMARK   59  A    between atoms: _136  and  _139
REMARK   60  A    between atoms: _139  and  _140
REMARK   61  A    between atoms: _143  and  _145
REMARK   62  A    between atoms: _145  and  _146
REMARK   63  A    between atoms: _148  and  _150
REMARK   64  A    between atoms: _150  and  _151
REMARK   65  A    between atoms: _153  and  _155
REMARK   66  A    between atoms: _155  and  _156
REMARK   67  A    between atoms: _155  and  _158
REMARK   68  A    between atoms: _158  and  _159
REMARK   69  A    between atoms: _162  and  _164
REMARK   70  A    between atoms: _164  and  _165
REMARK   71  A    between atoms: _164  and  _167
REMARK   72  A    between atoms: _167  and  _168
REMARK   73  A    between atoms: _172  and  _173
REMARK   74  A    between atoms: _178  and  _180
REMARK   75  A    between atoms: _180  and  _181
REMARK   76  A    between atoms: _180  and  _183
REMARK   77  A    between atoms: _183  and  _184
REMARK   78  A    between atoms: _188  and  _189
REMARK   79  A    between atoms: _194  and  _196
REMARK   80  A    between atoms: _196  and  _197
REMARK   81  A    between atoms: _196  and  _199
REMARK   82  A    between atoms: _202  and  _204
REMARK   83  A    between atoms: _204  and  _205
REMARK   84  A    between atoms: _204  and  _207
REMARK   85  A    between atoms: _207  and  _208
REMARK   86  A    between atoms: _213  and  _215
REMARK   87  A    between atoms: _215  and  _216
REMARK   88  A    between atoms: _215  and  _218
REMARK   89  A    between atoms: _218  and  _219
REMARK   90  A    between atoms: _222  and  _224
REMARK   91  A    between atoms: _224  and  _225
REMARK   92  A    between atoms: _224  and  _227
REMARK   93  A    between atoms: _227  and  _228
REMARK   94  A    between atoms: _231  and  _233
REMARK   95  A    between atoms: _233  and  _234
REMARK   96  A    between atoms: _236  and  _238
REMARK   97  A    between atoms: _238  and  _239
REMARK   98  A    between atoms: _238  and  _241
REMARK   99  A    between atoms: _241  and  _242
REMARK  100  A    between atoms: _242  and  _243
REMARK  101  A    between atoms: _243  and  _244
REMARK  102  A    between atoms: _253  and  _255
REMARK  103  A    between atoms: _255  and  _256
REMARK  104  A    between atoms: _255  and  _258
REMARK  105  A    between atoms: _258  and  _259
REMARK  106  A    between atoms: _264  and  _266
REMARK  107  A    between atoms: _266  and  _267
REMARK  108  A    between atoms: _266  and  _269
REMARK  109  A    between atoms: _269  and  _270
REMARK  110  A    between atoms: _270  and  _271
REMARK  111  A    between atoms: _271  and  _272
REMARK  112  A    between atoms: _281  and  _283
REMARK  113  A    between atoms: _283  and  _284
REMARK  114  A    between atoms: _283  and  _286
REMARK  115  A    between atoms: _286  and  _287
REMARK  116  A    between atoms: _290  and  _292
REMARK  117  A    between atoms: _292  and  _293
REMARK  118  A    between atoms: _292  and  _295
REMARK  119  A    between atoms: _295  and  _296
REMARK  120  A    between atoms: _299  and  _301
REMARK  121  A    between atoms: _301  and  _302
REMARK  122  A    between atoms: _301  and  _304
REMARK  123  A    between atoms: _304  and  _305
REMARK  124  A    between atoms: _308  and  _310
REMARK  125  A    between atoms: _310  and  _311
REMARK  126  A    between atoms: _310  and  _313
REMARK  127  A    between atoms: _313  and  _314
REMARK  128  A    between atoms: _317  and  _319
REMARK  129  A    between atoms: _319  and  _320
REMARK  130  A    between atoms: _319  and  _322
REMARK  131  A    between atoms: _322  and  _323
REMARK  132  A    between atoms: _326  and  _328
REMARK  133  A    between atoms: _328  and  _329
REMARK  134  A    between atoms: _331  and  _333
REMARK  135  A    between atoms: _333  and  _334
REMARK  136  A    between atoms: _337  and  _339
REMARK  137  A    between atoms: _339  and  _340
REMARK  138  A    between atoms: _339  and  _342
REMARK  139  A    between atoms: _342  and  _343
REMARK  140  A    between atoms: _346  and  _348
REMARK  141  A    between atoms: _348  and  _349
REMARK  142  A    between atoms: _348  and  _351
REMARK  143  A    between atoms: _351  and  _352
REMARK  144  A    between atoms: _357  and  _359
REMARK  145  A    between atoms: _359  and  _360
REMARK  146  A    between atoms: _359  and  _362
REMARK  147  A    between atoms: _362  and  _363
REMARK  148  A    between atoms: _366  and  _368
REMARK  149  A    between atoms: _368  and  _369
REMARK  150  A    between atoms: _368  and  _371
REMARK  151  A    between atoms: _374  and  _376
REMARK  152  A    between atoms: _376  and  _377
REMARK  153  A    between atoms: _376  and  _379
REMARK  154  A    between atoms: _379  and  _380
REMARK  155  A    between atoms: _380  and  _381
REMARK  156  A    between atoms: _381  and  _382
REMARK  157  A    between atoms: _382  and  _383
REMARK  158  A    between atoms: _387  and  _389
REMARK  159  A    between atoms: _389  and  _390
REMARK  160  A    between atoms: _389  and  _392
REMARK  161  A    between atoms: _392  and  _393
REMARK  162  A    between atoms: _393  and  _394
REMARK  163  A    between atoms: _396  and  _398
REMARK  164  A    between atoms: _398  and  _399
REMARK  165  A    between atoms: _398  and  _401
REMARK  166  A    between atoms: _401  and  _402
REMARK  167  A    between atoms: _405  and  _407
REMARK  168  A    between atoms: _407  and  _408
REMARK  169  A    between atoms: _410  and  _412
REMARK  170  A    between atoms: _412  and  _413
REMARK  171  A    between atoms: _415  and  _417
REMARK  172  A    between atoms: _417  and  _418
REMARK  173  A    between atoms: _417  and  _420
REMARK  174  A    between atoms: _420  and  _421
REMARK  175  A    between atoms: _424  and  _426
REMARK  176  A    between atoms: _426  and  _427
REMARK  177  A    between atoms: _429  and  _431
REMARK  178  A    between atoms: _431  and  _432
REMARK  179  A    between atoms: _434  and  _436
REMARK  180  A    between atoms: _436  and  _437
REMARK  181  A    between atoms: _436  and  _439
REMARK  182  A    between atoms: _439  and  _440
REMARK  183  A    between atoms: _446  and  _448
REMARK  184  A    between atoms: _448  and  _449
REMARK  185  A    between atoms: _448  and  _451
REMARK  186  A    between atoms: _451  and  _452
REMARK  187  A    between atoms: _455  and  _457
REMARK  188  A    between atoms: _457  and  _458
REMARK  189  A    between atoms: _457  and  _460
REMARK  190  A    between atoms: _463  and  _465
REMARK  191  A    between atoms: _465  and  _466
REMARK  192  A    between atoms: _465  and  _468
REMARK  193  A    between atoms: _468  and  _469
REMARK  194  A    between atoms: _472  and  _474
REMARK  195  A    between atoms: _474  and  _475
REMARK  196  A    between atoms: _474  and  _477
REMARK  197  A    between atoms: _477  and  _478
REMARK  198  A    between atoms: _482  and  _483
REMARK  199  A    between atoms: _488  and  _490
REMARK  200  A    between atoms: _490  and  _491
REMARK  201  A    between atoms: _490  and  _493
REMARK  202  A    between atoms: _496  and  _498
REMARK  203  A    between atoms: _498  and  _499
REMARK  204  A    between atoms: _498  and  _501
REMARK  205  A    between atoms: _501  and  _502
REMARK  206  A    between atoms: _507  and  _509
REMARK  207  A    between atoms: _509  and  _510
REMARK  208  A    between atoms: _509  and  _512
REMARK  209  A    between atoms: _512  and  _513
REMARK  210  A    between atoms: _516  and  _518
REMARK  211  A    between atoms: _518  and  _519
REMARK  212  A    between atoms: _518  and  _521
REMARK  213  A    between atoms: _521  and  _522
REMARK  214  A    between atoms: _525  and  _527
REMARK  215  A    between atoms: _527  and  _528
REMARK  216  A    between atoms: _530  and  _532
REMARK  217  A    between atoms: _532  and  _533
REMARK  218  A    between atoms: _532  and  _535
REMARK  219  A    between atoms: _535  and  _536
REMARK  220  A    between atoms: _536  and  _537
REMARK  221  A    between atoms: _537  and  _538
REMARK  222  A    between atoms: _547  and  _549
REMARK  223  A    between atoms: _549  and  _550
REMARK  224  A    between atoms: _549  and  _552
REMARK  225  A    between atoms: _552  and  _553
REMARK                            x       y       z     vdW  Elec       q    Type
REMARK                         _______ _______ _______ _____ _____    ______ ____
ROOT
ATOM      1  NE  ARG A   1      -9.345  45.864  -1.604  0.00  0.00    -0.265 N 
ATOM      2  CZ  ARG A   1     -10.596  45.811  -1.156  0.00  0.00    +0.342 C 
ATOM      3  NH2 ARG A   1     -10.883  45.147  -0.036  0.00  0.00    -0.292 N 
ATOM      4 HH21 ARG A   1     -10.127  44.667   0.492  0.00  0.00    +0.255 HD
ATOM      5 HH22 ARG A   1     -11.863  45.109   0.309  0.00  0.00    +0.255 HD
ATOM      6  NH1 ARG A   1     -11.564  46.432  -1.819  0.00  0.00    -0.292 N 
ATOM      7 HH11 ARG A   1     -12.543  46.391  -1.470  0.00  0.00    +0.255 HD
ATOM      8 HH12 ARG A   1     -11.344  46.959  -2.688  0.00  0.00    +0.255 HD
ATOM      9  HE  ARG A   1      -9.159  46.403  -2.474  0.00  0.00    +0.259 HD
ENDROOT
BRANCH   1  10
ATOM     10  CD  ARG A   1      -8.214  45.209  -0.945  0.00  0.00    +0.174 C 
BRANCH  10  11
ATOM     11  CG  ARG A   1      -6.894  45.729  -1.478  0.00  0.00    +0.045 C 
BRANCH  11  12
ATOM     12  CB  ARG A   1      -5.754  45.282  -0.611  0.00  0.00    +0.029 C 
BRANCH  12  13
ATOM     13  CA  ARG A   1      -4.411  45.867  -1.021  0.00  0.00    +0.133 C 
BRANCH  13  14
ATOM     14  N   ARG A   1      -4.003  45.439  -2.371  0.00  0.00    -0.239 NA
ATOM     15  H   ARG A   1      -4.620  44.813  -2.927  0.00  0.00    +0.142 HD
ENDBRANCH  13  14
BRANCH  13  16
ATOM     16  C   ARG A   1      -3.340  45.467  -0.016  0.00  0.00    +0.224 C 
ATOM     17  O   ARG A   1      -2.764  44.366  -0.132  0.00  0.00    -0.287 OA
ENDBRANCH  13  16
ENDBRANCH  12  13
ENDBRANCH  11  12
ENDBRANCH  10  11
ENDBRANCH   1  10
TORSDOF 6
REMARK  Name = ../refined-set-2016/2q63/2q63_pocket.pdb
REMARK  225 active torsions:
REMARK  status: ('A' for Active; 'I' for Inactive)
REMARK    1  A    between atoms: _1  and  _3
REMARK    2  A    between atoms: _3  and  _4
REMARK    3  A    between atoms: _3  and  _6
REMARK    4  A    between atoms: _6  and  _7
REMARK    5  A    between atoms: _7  and  _8
REMARK    6  A    between atoms: _8  and  _9
REMARK    7  A    between atoms: _18  and  _20
REMARK    8  A    between atoms: _20  and  _21
REMARK    9  A    between atoms: _20  and  _23
REMARK   10  A    between atoms: _23  and  _24
REMARK   11  A    between atoms: _27  and  _29
REMARK   12  A    between atoms: _29  and  _30
REMARK   13  A    between atoms: _29  and  _32
REMARK   14  A    between atoms: _32  and  _33
REMARK   15  A    between atoms: _36  and  _38
REMARK   16  A    between atoms: _38  and  _39
REMARK   17  A    between atoms: _38  and  _41
REMARK   18  A    between atoms: _41  and  _42
REMARK   19  A    between atoms: _45  and  _47
REMARK   20  A    between atoms: _47  and  _48
REMARK   21  A    between atoms: _47  and  _50
REMARK   22  A    between atoms: _50  and  _51
REMARK   23  A    between atoms: _54  and  _56
REMARK   24  A    between atoms: _56  and  _57
REMARK   25  A    between atoms: _59  and  _61
REMARK   26  A    between atoms: _61  and  _62
REMARK   27  A    between atoms: _65  and  _67
REMARK   28  A    between atoms: _67  and  _68
REMARK   29  A    between atoms: _67  and  _70
REMARK   30  A    between atoms: _70  and  _71
REMARK   31  A    between atoms: _74  and  _76
REMARK   32  A    between atoms: _76  and  _77
REMARK   33  A    between atoms: _76  and  _79
REMARK   34  A    between atoms: _79  and  _80
REMARK   35  A    between atoms: _85  and  _87
REMARK   36  A    between atoms: _87  and  _88
REMARK   37  A    between atoms: _87  and  _90
REMARK   38  A    between atoms: _90  and  _91
REMARK   39  A    between atoms: _94  and  _96
REMARK   40  A    between atoms: _96  and  _97
REMARK   41  A    between atoms: _96  and  _99
REMARK   42  A    between atoms: _102  and  _104
REMARK   43  A    between atoms: _104  and  _105
REMARK   44  A    between atoms: _104  and  _107
REMARK   45  A    between atoms: _107  and  _108
REMARK   46  A    between atoms: _108  and  _109
REMARK   47  A    between atoms: _109  and  _110
REMARK   48  A    between atoms: _110  and  _111
REMARK   49  A    between atoms: _115  and  _117
REMARK   50  A    between atoms: _117  and  _118
REMARK   51  A    between atoms: _117  and  _120
REMARK   52  A    between atoms: _120  and  _121
REMARK   53  A    between atoms: _124  and  _126
REMARK   54  A    between atoms: _126  and  _127
REMARK   55  A    between atoms: _129  and  _131
REMARK   56  A    between atoms: _131  and  _132
REMARK   57  A    between atoms: _134  and  _136
REMARK   58  A    between atoms: _136  and  _137
REMARK   59  A    between atoms: _136  and  _139
REMARK   60  A    between atoms: _139  and  _140
REMARK   61  A    between atoms: _143  and  _145
REMARK   62  A    between atoms: _145  and  _146
REMARK   63  A    between atoms: _148  and  _150
REMARK   64  A    between atoms: _150  and  _151
REMARK   65  A    between atoms: _153  and  _155
REMARK   66  A    between atoms: _155  and  _156
REMARK   67  A    between atoms: _155  and  _158
REMARK   68  A    between atoms: _158  and  _159
REMARK   69  A    between atoms: _162  and  _164
REMARK   70  A    between atoms: _164  and  _165
REMARK   71  A    between atoms: _164  and  _167
REMARK   72  A    between atoms: _167  and  _168
REMARK   73  A    between atoms: _172  and  _173
REMARK   74  A    between atoms: _178  and  _180
REMARK   75  A    between atoms: _180  and  _181
REMARK   76  A    between atoms: _180  and  _183
REMARK   77  A    between atoms: _183  and  _184
REMARK   78  A    between atoms: _188  and  _189
REMARK   79  A    between atoms: _194  and  _196
REMARK   80  A    between atoms: _196  and  _197
REMARK   81  A    between atoms: _196  and  _199
REMARK   82  A    between atoms: _202  and  _204
REMARK   83  A    between atoms: _204  and  _205
REMARK   84  A    between atoms: _204  and  _207
REMARK   85  A    between atoms: _207  and  _208
REMARK   86  A    between atoms: _213  and  _215
REMARK   87  A    between atoms: _215  and  _216
REMARK   88  A    between atoms: _215  and  _218
REMARK   89  A    between atoms: _218  and  _219
REMARK   90  A    between atoms: _222  and  _224
REMARK   91  A    between atoms: _224  and  _225
REMARK   92  A    between atoms: _224  and  _227
REMARK   93  A    between atoms: _227  and  _228
REMARK   94  A    between atoms: _231  and  _233
REMARK   95  A    between atoms: _233  and  _234
REMARK   96  A    between atoms: _236  and  _238
REMARK   97  A    between atoms: _238  and  _239
REMARK   98  A    between atoms: _238  and  _241
REMARK   99  A    between atoms: _241  and  _242
REMARK  100  A    between atoms: _242  and  _243
REMARK  101  A    between atoms: _243  and  _244
REMARK  102  A    between atoms: _253  and  _255
REMARK  103  A    between atoms: _255  and  _256
REMARK  104  A    between atoms: _255  and  _258
REMARK  105  A    between atoms: _258  and  _259
REMARK  106  A    between atoms: _264  and  _266
REMARK  107  A    between atoms: _266  and  _267
REMARK  108  A    between atoms: _266  and  _269
REMARK  109  A    between atoms: _269  and  _270
REMARK  110  A    between atoms: _270  and  _271
REMARK  111  A    between atoms: _271  and  _272
REMARK  112  A    between atoms: _281  and  _283
REMARK  113  A    between atoms: _283  and  _284
REMARK  114  A    between atoms: _283  and  _286
REMARK  115  A    between atoms: _286  and  _287
REMARK  116  A    between atoms: _290  and  _292
REMARK  117  A    between atoms: _292  and  _293
REMARK  118  A    between atoms: _292  and  _295
REMARK  119  A    between atoms: _295  and  _296
REMARK  120  A    between atoms: _299  and  _301
REMARK  121  A    between atoms: _301  and  _302
REMARK  122  A    between atoms: _301  and  _304
REMARK  123  A    between atoms: _304  and  _305
REMARK  124  A    between atoms: _308  and  _310
REMARK  125  A    between atoms: _310  and  _311
REMARK  126  A    between atoms: _310  and  _313
REMARK  127  A    between atoms: _313  and  _314
REMARK  128  A    between atoms: _317  and  _319
REMARK  129  A    between atoms: _319  and  _320
REMARK  130  A    between atoms: _319  and  _322
REMARK  131  A    between atoms: _322  and  _323
REMARK  132  A    between atoms: _326  and  _328
REMARK  133  A    between atoms: _328  and  _329
REMARK  134  A    between atoms: _331  and  _333
REMARK  135  A    between atoms: _333  and  _334
REMARK  136  A    between atoms: _337  and  _339
REMARK  137  A    between atoms: _339  and  _340
REMARK  138  A    between atoms: _339  and  _342
REMARK  139  A    between atoms: _342  and  _343
REMARK  140  A    between atoms: _346  and  _348
REMARK  141  A    between atoms: _348  and  _349
REMARK  142  A    between atoms: _348  and  _351
REMARK  143  A    between atoms: _351  and  _352
REMARK  144  A    between atoms: _357  and  _359
REMARK  145  A    between atoms: _359  and  _360
REMARK  146  A    between atoms: _359  and  _362
REMARK  147  A    between atoms: _362  and  _363
REMARK  148  A    between atoms: _366  and  _368
REMARK  149  A    between atoms: _368  and  _369
REMARK  150  A    between atoms: _368  and  _371
REMARK  151  A    between atoms: _374  and  _376
REMARK  152  A    between atoms: _376  and  _377
REMARK  153  A    between atoms: _376  and  _379
REMARK  154  A    between atoms: _379  and  _380
REMARK  155  A    between atoms: _380  and  _381
REMARK  156  A    between atoms: _381  and  _382
REMARK  157  A    between atoms: _382  and  _383
REMARK  158  A    between atoms: _387  and  _389
REMARK  159  A    between atoms: _389  and  _390
REMARK  160  A    between atoms: _389  and  _392
REMARK  161  A    between atoms: _392  and  _393
REMARK  162  A    between atoms: _393  and  _394
REMARK  163  A    between atoms: _396  and  _398
REMARK  164  A    between atoms: _398  and  _399
REMARK  165  A    between atoms: _398  and  _401
REMARK  166  A    between atoms: _401  and  _402
REMARK  167  A    between atoms: _405  and  _407
REMARK  168  A    between atoms: _407  and  _408
REMARK  169  A    between atoms: _410  and  _412
REMARK  170  A    between atoms: _412  and  _413
REMARK  171  A    between atoms: _415  and  _417
REMARK  172  A    between atoms: _417  and  _418
REMARK  173  A    between atoms: _417  and  _420
REMARK  174  A    between atoms: _420  and  _421
REMARK  175  A    between atoms: _424  and  _426
REMARK  176  A    between atoms: _426  and  _427
REMARK  177  A    between atoms: _429  and  _431
REMARK  178  A    between atoms: _431  and  _432
REMARK  179  A    between atoms: _434  and  _436
REMARK  180  A    between atoms: _436  and  _437
REMARK  181  A    between atoms: _436  and  _439
REMARK  182  A    between atoms: _439  and  _440
REMARK  183  A    between atoms: _446  and  _448
REMARK  184  A    between atoms: _448  and  _449
REMARK  185  A    between atoms: _448  and  _451
REMARK  186  A    between atoms: _451  and  _452
REMARK  187  A    between atoms: _455  and  _457
REMARK  188  A    between atoms: _457  and  _458
REMARK  189  A    between atoms: _457  and  _460
REMARK  190  A    between atoms: _463  and  _465
REMARK  191  A    between atoms: _465  and  _466
REMARK  192  A    between atoms: _465  and  _468
REMARK  193  A    between atoms: _468  and  _469
REMARK  194  A    between atoms: _472  and  _474
REMARK  195  A    between atoms: _474  and  _475
REMARK  196  A    between atoms: _474  and  _477
REMARK  197  A    between atoms: _477  and  _478
REMARK  198  A    between atoms: _482  and  _483
REMARK  199  A    between atoms: _488  and  _490
REMARK  200  A    between atoms: _490  and  _491
REMARK  201  A    between atoms: _490  and  _493
REMARK  202  A    between atoms: _496  and  _498
REMARK  203  A    between atoms: _498  and  _499
REMARK  204  A    between atoms: _498  and  _501
REMARK  205  A    between atoms: _501  and  _502
REMARK  206  A    between atoms: _507  and  _509
REMARK  207  A    between atoms: _509  and  _510
REMARK  208  A    between atoms: _509  and  _512
REMARK  209  A    between atoms: _512  and  _513
REMARK  210  A    between atoms: _516  and  _518
REMARK  211  A    between atoms: _518  and  _519
REMARK  212  A    between atoms: _518  and  _521
REMARK  213  A    between atoms: _521  and  _522
REMARK  214  A    between atoms: _525  and  _527
REMARK  215  A    between atoms: _527  and  _528
REMARK  216  A    between atoms: _530  and  _532
REMARK  217  A    between atoms: _532  and  _533
REMARK  218  A    between atoms: _532  and  _535
REMARK  219  A    between atoms: _535  and  _536
REMARK  220  A    between atoms: _536  and  _537
REMARK  221  A    between atoms: _537  and  _538
REMARK  222  A    between atoms: _547  and  _549
REMARK  223  A    between atoms: _549  and  _550
REMARK  224  A    between atoms: _549  and  _552
REMARK  225  A    between atoms: _552  and  _553
REMARK                            x       y       z     vdW  Elec       q    Type
REMARK                         _______ _______ _______ _____ _____    ______ ____
ROOT
ATOM      1  CA  LEU A   1      -3.523  43.115   3.889  0.00  0.00    +0.133 C 
ENDROOT
BRANCH   1   2
ATOM      2  N   LEU A   1      -2.914  44.044   2.939  0.00  0.00    -0.239 NA
ATOM      3  H   LEU A   1      -2.656  43.675   2.001  0.00  0.00    +0.142 HD
ENDBRANCH   1   2
BRANCH   1   4
ATOM      4  C   LEU A   1      -2.448  42.489   4.718  0.00  0.00    +0.224 C 
ATOM      5  O   LEU A   1      -1.415  42.084   4.195  0.00  0.00    -0.287 OA
ENDBRANCH   1   4
BRANCH   1   6
ATOM      6  CB  LEU A   1      -4.260  42.008   3.136  0.00  0.00    +0.025 C 
BRANCH   6   7
ATOM      7  CG  LEU A   1      -5.550  42.448   2.424  0.00  0.00    +0.002 C 
ATOM      8  CD2 LEU A   1      -6.600  42.996   3.431  0.00  0.00    +0.000 C 
ATOM      9  CD1 LEU A   1      -6.122  41.286   1.577  0.00  0.00    +0.000 C 
ENDBRANCH   6   7
ENDBRANCH   1   6
TORSDOF 4
REMARK  Name = ../refined-set-2016/2q63/2q63_pocket.pdb
REMARK  225 active torsions:
REMARK  status: ('A' for Active; 'I' for Inactive)
REMARK    1  A    between atoms: _1  and  _3
REMARK    2  A    between atoms: _3  and  _4
REMARK    3  A    between atoms: _3  and  _6
REMARK    4  A    between atoms: _6  and  _7
REMARK    5  A    between atoms: _7  and  _8
REMARK    6  A    between atoms: _8  and  _9
REMARK    7  A    between atoms: _18  and  _20
REMARK    8  A    between atoms: _20  and  _21
REMARK    9  A    between atoms: _20  and  _23
REMARK   10  A    between atoms: _23  and  _24
REMARK   11  A    between atoms: _27  and  _29
REMARK   12  A    between atoms: _29  and  _30
REMARK   13  A    between atoms: _29  and  _32
REMARK   14  A    between atoms: _32  and  _33
REMARK   15  A    between atoms: _36  and  _38
REMARK   16  A    between atoms: _38  and  _39
REMARK   17  A    between atoms: _38  and  _41
REMARK   18  A    between atoms: _41  and  _42
REMARK   19  A    between atoms: _45  and  _47
REMARK   20  A    between atoms: _47  and  _48
REMARK   21  A    between atoms: _47  and  _50
REMARK   22  A    between atoms: _50  and  _51
REMARK   23  A    between atoms: _54  and  _56
REMARK   24  A    between atoms: _56  and  _57
REMARK   25  A    between atoms: _59  and  _61
REMARK   26  A    between atoms: _61  and  _62
REMARK   27  A    between atoms: _65  and  _67
REMARK   28  A    between atoms: _67  and  _68
REMARK   29  A    between atoms: _67  and  _70
REMARK   30  A    between atoms: _70  and  _71
REMARK   31  A    between atoms: _74  and  _76
REMARK   32  A    between atoms: _76  and  _77
REMARK   33  A    between atoms: _76  and  _79
REMARK   34  A    between atoms: _79  and  _80
REMARK   35  A    between atoms: _85  and  _87
REMARK   36  A    between atoms: _87  and  _88
REMARK   37  A    between atoms: _87  and  _90
REMARK   38  A    between atoms: _90  and  _91
REMARK   39  A    between atoms: _94  and  _96
REMARK   40  A    between atoms: _96  and  _97
REMARK   41  A    between atoms: _96  and  _99
REMARK   42  A    between atoms: _102  and  _104
REMARK   43  A    between atoms: _104  and  _105
REMARK   44  A    between atoms: _104  and  _107
REMARK   45  A    between atoms: _107  and  _108
REMARK   46  A    between atoms: _108  and  _109
REMARK   47  A    between atoms: _109  and  _110
REMARK   48  A    between atoms: _110  and  _111
REMARK   49  A    between atoms: _115  and  _117
REMARK   50  A    between atoms: _117  and  _118
REMARK   51  A    between atoms: _117  and  _120
REMARK   52  A    between atoms: _120  and  _121
REMARK   53  A    between atoms: _124  and  _126
REMARK   54  A    between atoms: _126  and  _127
REMARK   55  A    between atoms: _129  and  _131
REMARK   56  A    between atoms: _131  and  _132
REMARK   57  A    between atoms: _134  and  _136
REMARK   58  A    between atoms: _136  and  _137
REMARK   59  A    between atoms: _136  and  _139
REMARK   60  A    between atoms: _139  and  _140
REMARK   61  A    between atoms: _143  and  _145
REMARK   62  A    between atoms: _145  and  _146
REMARK   63  A    between atoms: _148  and  _150
REMARK   64  A    between atoms: _150  and  _151
REMARK   65  A    between atoms: _153  and  _155
REMARK   66  A    between atoms: _155  and  _156
REMARK   67  A    between atoms: _155  and  _158
REMARK   68  A    between atoms: _158  and  _159
REMARK   69  A    between atoms: _162  and  _164
REMARK   70  A    between atoms: _164  and  _165
REMARK   71  A    between atoms: _164  and  _167
REMARK   72  A    between atoms: _167  and  _168
REMARK   73  A    between atoms: _172  and  _173
REMARK   74  A    between atoms: _178  and  _180
REMARK   75  A    between atoms: _180  and  _181
REMARK   76  A    between atoms: _180  and  _183
REMARK   77  A    between atoms: _183  and  _184
REMARK   78  A    between atoms: _188  and  _189
REMARK   79  A    between atoms: _194  and  _196
REMARK   80  A    between atoms: _196  and  _197
REMARK   81  A    between atoms: _196  and  _199
REMARK   82  A    between atoms: _202  and  _204
REMARK   83  A    between atoms: _204  and  _205
REMARK   84  A    between atoms: _204  and  _207
REMARK   85  A    between atoms: _207  and  _208
REMARK   86  A    between atoms: _213  and  _215
REMARK   87  A    between atoms: _215  and  _216
REMARK   88  A    between atoms: _215  and  _218
REMARK   89  A    between atoms: _218  and  _219
REMARK   90  A    between atoms: _222  and  _224
REMARK   91  A    between atoms: _224  and  _225
REMARK   92  A    between atoms: _224  and  _227
REMARK   93  A    between atoms: _227  and  _228
REMARK   94  A    between atoms: _231  and  _233
REMARK   95  A    between atoms: _233  and  _234
REMARK   96  A    between atoms: _236  and  _238
REMARK   97  A    between atoms: _238  and  _239
REMARK   98  A    between atoms: _238  and  _241
REMARK   99  A    between atoms: _241  and  _242
REMARK  100  A    between atoms: _242  and  _243
REMARK  101  A    between atoms: _243  and  _244
REMARK  102  A    between atoms: _253  and  _255
REMARK  103  A    between atoms: _255  and  _256
REMARK  104  A    between atoms: _255  and  _258
REMARK  105  A    between atoms: _258  and  _259
REMARK  106  A    between atoms: _264  and  _266
REMARK  107  A    between atoms: _266  and  _267
REMARK  108  A    between atoms: _266  and  _269
REMARK  109  A    between atoms: _269  and  _270
REMARK  110  A    between atoms: _270  and  _271
REMARK  111  A    between atoms: _271  and  _272
REMARK  112  A    between atoms: _281  and  _283
REMARK  113  A    between atoms: _283  and  _284
REMARK  114  A    between atoms: _283  and  _286
REMARK  115  A    between atoms: _286  and  _287
REMARK  116  A    between atoms: _290  and  _292
REMARK  117  A    between atoms: _292  and  _293
REMARK  118  A    between atoms: _292  and  _295
REMARK  119  A    between atoms: _295  and  _296
REMARK  120  A    between atoms: _299  and  _301
REMARK  121  A    between atoms: _301  and  _302
REMARK  122  A    between atoms: _301  and  _304
REMARK  123  A    between atoms: _304  and  _305
REMARK  124  A    between atoms: _308  and  _310
REMARK  125  A    between atoms: _310  and  _311
REMARK  126  A    between atoms: _310  and  _313
REMARK  127  A    between atoms: _313  and  _314
REMARK  128  A    between atoms: _317  and  _319
REMARK  129  A    between atoms: _319  and  _320
REMARK  130  A    between atoms: _319  and  _322
REMARK  131  A    between atoms: _322  and  _323
REMARK  132  A    between atoms: _326  and  _328
REMARK  133  A    between atoms: _328  and  _329
REMARK  134  A    between atoms: _331  and  _333
REMARK  135  A    between atoms: _333  and  _334
REMARK  136  A    between atoms: _337  and  _339
REMARK  137  A    between atoms: _339  and  _340
REMARK  138  A    between atoms: _339  and  _342
REMARK  139  A    between atoms: _342  and  _343
REMARK  140  A    between atoms: _346  and  _348
REMARK  141  A    between atoms: _348  and  _349
REMARK  142  A    between atoms: _348  and  _351
REMARK  143  A    between atoms: _351  and  _352
REMARK  144  A    between atoms: _357  and  _359
REMARK  145  A    between atoms: _359  and  _360
REMARK  146  A    between atoms: _359  and  _362
REMARK  147  A    between atoms: _362  and  _363
REMARK  148  A    between atoms: _366  and  _368
REMARK  149  A    between atoms: _368  and  _369
REMARK  150  A    between atoms: _368  and  _371
REMARK  151  A    between atoms: _374  and  _376
REMARK  152  A    between atoms: _376  and  _377
REMARK  153  A    between atoms: _376  and  _379
REMARK  154  A    between atoms: _379  and  _380
REMARK  155  A    between atoms: _380  and  _381
REMARK  156  A    between atoms: _381  and  _382
REMARK  157  A    between atoms: _382  and  _383
REMARK  158  A    between atoms: _387  and  _389
REMARK  159  A    between atoms: _389  and  _390
REMARK  160  A    between atoms: _389  and  _392
REMARK  161  A    between atoms: _392  and  _393
REMARK  162  A    between atoms: _393  and  _394
REMARK  163  A    between atoms: _396  and  _398
REMARK  164  A    between atoms: _398  and  _399
REMARK  165  A    between atoms: _398  and  _401
REMARK  166  A    between atoms: _401  and  _402
REMARK  167  A    between atoms: _405  and  _407
REMARK  168  A    between atoms: _407  and  _408
REMARK  169  A    between atoms: _410  and  _412
REMARK  170  A    between atoms: _412  and  _413
REMARK  171  A    between atoms: _415  and  _417
REMARK  172  A    between atoms: _417  and  _418
REMARK  173  A    between atoms: _417  and  _420
REMARK  174  A    between atoms: _420  and  _421
REMARK  175  A    between atoms: _424  and  _426
REMARK  176  A    between atoms: _426  and  _427
REMARK  177  A    between atoms: _429  and  _431
REMARK  178  A    between atoms: _431  and  _432
REMARK  179  A    between atoms: _434  and  _436
REMARK  180  A    between atoms: _436  and  _437
REMARK  181  A    between atoms: _436  and  _439
REMARK  182  A    between atoms: _439  and  _440
REMARK  183  A    between atoms: _446  and  _448
REMARK  184  A    between atoms: _448  and  _449
REMARK  185  A    between atoms: _448  and  _451
REMARK  186  A    between atoms: _451  and  _452
REMARK  187  A    between atoms: _455  and  _457
REMARK  188  A    between atoms: _457  and  _458
REMARK  189  A    between atoms: _457  and  _460
REMARK  190  A    between atoms: _463  and  _465
REMARK  191  A    between atoms: _465  and  _466
REMARK  192  A    between atoms: _465  and  _468
REMARK  193  A    between atoms: _468  and  _469
REMARK  194  A    between atoms: _472  and  _474
REMARK  195  A    between atoms: _474  and  _475
REMARK  196  A    between atoms: _474  and  _477
REMARK  197  A    between atoms: _477  and  _478
REMARK  198  A    between atoms: _482  and  _483
REMARK  199  A    between atoms: _488  and  _490
REMARK  200  A    between atoms: _490  and  _491
REMARK  201  A    between atoms: _490  and  _493
REMARK  202  A    between atoms: _496  and  _498
REMARK  203  A    between atoms: _498  and  _499
REMARK  204  A    between atoms: _498  and  _501
REMARK  205  A    between atoms: _501  and  _502
REMARK  206  A    between atoms: _507  and  _509
REMARK  207  A    between atoms: _509  and  _510
REMARK  208  A    between atoms: _509  and  _512
REMARK  209  A    between atoms: _512  and  _513
REMARK  210  A    between atoms: _516  and  _518
REMARK  211  A    between atoms: _518  and  _519
REMARK  212  A    between atoms: _518  and  _521
REMARK  213  A    between atoms: _521  and  _522
REMARK  214  A    between atoms: _525  and  _527
REMARK  215  A    between atoms: _527  and  _528
REMARK  216  A    between atoms: _530  and  _532
REMARK  217  A    between atoms: _532  and  _533
REMARK  218  A    between atoms: _532  and  _535
REMARK  219  A    between atoms: _535  and  _536
REMARK  220  A    between atoms: _536  and  _537
REMARK  221  A    between atoms: _537  and  _538
REMARK  222  A    between atoms: _547  and  _549
REMARK  223  A    between atoms: _549  and  _550
REMARK  224  A    between atoms: _549  and  _552
REMARK  225  A    between atoms: _552  and  _553
REMARK                            x       y       z     vdW  Elec       q    Type
REMARK                         _______ _______ _______ _____ _____    ______ ____
ROOT
ATOM      1  C   GLY A   5      -8.540  56.527   6.712  0.00  0.00    +0.243 C 
ATOM      2  N   ALA A   6      -8.213  55.625   7.637  0.00  0.00    -0.297 N 
ATOM      3  H   ALA A   6      -7.303  55.129   7.543  0.00  0.00    +0.150 HD
ATOM      4  O   GLY A   5      -9.586  57.170   6.741  0.00  0.00    -0.273 OA
ENDROOT
BRANCH   2   5
ATOM      5  CA  ALA A   6      -9.073  55.295   8.783  0.00  0.00    +0.149 C 
ATOM      6  CB  ALA A   6      -9.247  53.778   8.881  0.00  0.00    +0.031 C 
BRANCH   5   7
ATOM      7  C   ALA A   6      -8.493  55.816  10.100  0.00  0.00    +0.241 C 
ATOM      8  N   ASP A   7      -9.241  56.656  10.826  0.00  0.00    -0.297 N 
ATOM      9  H   ASP A   7     -10.155  56.975  10.447  0.00  0.00    +0.150 HD
ATOM     10  O   ALA A   6      -7.381  55.429  10.456  0.00  0.00    -0.273 OA
BRANCH   8  11
ATOM     11  CA  ASP A   7      -8.807  57.140  12.144  0.00  0.00    +0.160 C 
BRANCH  11  12
ATOM     12  C   ASP A   7      -8.814  56.017  13.163  0.00  0.00    +0.241 C 
ATOM     13  O   ASP A   7      -7.987  56.032  14.075  0.00  0.00    -0.273 OA
ATOM     14  N   ASN A   8      -9.755  55.075  12.988  0.00  0.00    -0.297 N 
ATOM     15  H   ASN A   8     -10.343  55.132  12.132  0.00  0.00    +0.150 HD
BRANCH  14  16
ATOM     16  CA  ASN A   8     -10.011  53.972  13.920  0.00  0.00    +0.158 C 
BRANCH  16  17
ATOM     17  C   ASN A   8      -9.775  52.594  13.304  0.00  0.00    +0.241 C 
ATOM     18  N   THR A   9      -9.694  51.608  14.192  0.00  0.00    -0.295 N 
ATOM     19  H   THR A   9      -9.705  51.853  15.203  0.00  0.00    +0.150 HD
ATOM     20  O   ASN A   8      -9.695  52.434  12.074  0.00  0.00    -0.273 OA
BRANCH  18  21
ATOM     21  CA  THR A   9      -9.591  50.211  13.827  0.00  0.00    +0.176 C 
BRANCH  21  22
ATOM     22  C   THR A   9     -10.975  49.535  13.920  0.00  0.00    +0.243 C 
ATOM     23  O   THR A   9     -11.658  49.631  14.946  0.00  0.00    -0.273 OA
ATOM     24  N   VAL A  10     -11.386  48.851  12.854  0.00  0.00    -0.298 N 
ATOM     25  H   VAL A  10     -10.742  48.723  12.048  0.00  0.00    +0.150 HD
BRANCH  24  26
ATOM     26  CA  VAL A  10     -12.744  48.272  12.800  0.00  0.00    +0.137 C 
BRANCH  26  27
ATOM     27  CB  VAL A  10     -13.709  49.052  11.855  0.00  0.00    +0.026 C 
ATOM     28  CG2 VAL A  10     -15.171  48.734  12.204  0.00  0.00    +0.002 C 
ATOM     29  CG1 VAL A  10     -13.477  50.549  11.964  0.00  0.00    +0.002 C 
ENDBRANCH  26  27
BRANCH  26  30
ATOM     30  C   VAL A  10     -12.704  46.809  12.376  0.00  0.00    +0.227 C 
ATOM     31  O   VAL A  10     -12.261  46.481  11.277  0.00  0.00    -0.286 OA
ENDBRANCH  26  30
ENDBRANCH  24  26
ENDBRANCH  21  22
BRANCH  21  32
ATOM     32  CB  THR A   9      -8.558  49.530  14.748  0.00  0.00    +0.137 C 
ATOM     33  CG2 THR A   9      -8.557  47.991  14.578  0.00  0.00    +0.034 C 
BRANCH  32  34
ATOM     34  OG1 THR A   9      -7.270  50.054  14.432  0.00  0.00    -0.382 OA
ATOM     35  HG1 THR A   9      -7.268  51.033  14.581  0.00  0.00    +0.210 HD
ENDBRANCH  32  34
ENDBRANCH  21  32
ENDBRANCH  18  21
ENDBRANCH  16  17
BRANCH  16  36
ATOM     36  CB  ASN A   8     -11.453  54.020  14.394  0.00  0.00    +0.114 C 
BRANCH  36  37
ATOM     37  CG  ASN A   8     -11.902  55.433  14.748  0.00  0.00    +0.222 C 
ATOM     38  ND2 ASN A   8     -11.324  55.994  15.799  0.00  0.00    -0.329 N 
ATOM     39 HD21 ASN A   8     -10.632  55.458  16.360  0.00  0.00    +0.145 HD
ATOM     40 HD22 ASN A   8     -11.562  56.971  16.064  0.00  0.00    +0.145 HD
ATOM     41  OD1 ASN A   8     -12.729  56.023  14.049  0.00  0.00    -0.275 OA
ENDBRANCH  36  37
ENDBRANCH  16  36
ENDBRANCH  14  16
ENDBRANCH  11  12
BRANCH  11  42
ATOM     42  CB  ASP A   7      -9.736  58.212  12.684  0.00  0.00    +0.143 C 
BRANCH  42  43
ATOM     43  CG  ASP A   7      -9.868  59.375  11.769  0.00  0.00    +0.367 C 
ATOM     44  OD2 ASP A   7     -10.950  59.993  11.809  0.00  0.00    -0.246 OA
ATOM     45  OD1 ASP A   7      -8.903  59.676  11.013  0.00  0.00    -0.246 OA
ENDBRANCH  42  43
ENDBRANCH  11  42
ENDBRANCH   8  11
ENDBRANCH   5   7
ENDBRANCH   2   5
BRANCH   1  46
ATOM     46  CA  GLY A   5      -7.547  56.757   5.586  0.00  0.00    +0.176 C 
BRANCH  46  49
ATOM     47  C   THR A   4      -5.315  56.234   6.389  0.00  0.00    +0.243 C 
ATOM     48  O   THR A   4      -5.285  57.260   7.083  0.00  0.00    -0.273 OA
ATOM     49  N   GLY A   5      -6.359  55.911   5.641  0.00  0.00    -0.295 N 
ATOM     50  H   GLY A   5      -6.332  55.035   5.081  0.00  0.00    +0.150 HD
BRANCH  47  51
ATOM     51  CA  THR A   4      -4.139  55.241   6.374  0.00  0.00    +0.176 C 
BRANCH  51  54
ATOM     52  C   ASP A   3      -5.368  53.153   6.740  0.00  0.00    +0.241 C 
ATOM     53  O   ASP A   3      -5.890  53.603   7.769  0.00  0.00    -0.273 OA
ATOM     54  N   THR A   4      -4.528  53.869   5.999  0.00  0.00    -0.295 N 
ATOM     55  H   THR A   4      -4.135  53.450   5.132  0.00  0.00    +0.150 HD
BRANCH  52  56
ATOM     56  CA  ASP A   3      -5.686  51.742   6.229  0.00  0.00    +0.160 C 
BRANCH  56  58
ATOM     57  C   LEU A   2      -4.189  49.877   6.021  0.00  0.00    +0.241 C 
ATOM     58  N   ASP A   3      -4.847  50.718   6.807  0.00  0.00    -0.297 N 
ATOM     59  H   ASP A   3      -4.759  50.640   7.840  0.00  0.00    +0.150 HD
ATOM     60  O   LEU A   2      -4.063  50.068   4.799  0.00  0.00    -0.273 OA
BRANCH  57  61
ATOM     61  CA  LEU A   2      -3.623  48.632   6.701  0.00  0.00    +0.149 C 
BRANCH  61  64
ATOM     62  C   LEU A   1      -5.559  47.181   6.515  0.00  0.00    +0.238 C 
ATOM     63  O   LEU A   1      -6.157  47.796   7.409  0.00  0.00    -0.274 OA
ATOM     64  N   LEU A   2      -4.308  47.463   6.159  0.00  0.00    -0.297 N 
ATOM     65  H   LEU A   2      -3.813  46.843   5.487  0.00  0.00    +0.150 HD
BRANCH  62  66
ATOM     66  CA  LEU A   1      -6.222  46.012   5.785  0.00  0.00    +0.145 C 
BRANCH  66  67
ATOM     67  N   LEU A   1      -6.728  45.089   6.768  0.00  0.00    -0.238 NA
ATOM     68  H   LEU A   1      -7.627  45.307   7.242  0.00  0.00    +0.142 HD
ENDBRANCH  66  67
BRANCH  66  69
ATOM     69  CB  LEU A   1      -7.378  46.474   4.893  0.00  0.00    +0.026 C 
BRANCH  69  70
ATOM     70  CG  LEU A   1      -7.213  47.581   3.851  0.00  0.00    +0.002 C 
ATOM     71  CD2 LEU A   1      -8.567  48.137   3.475  0.00  0.00    +0.000 C 
ATOM     72  CD1 LEU A   1      -6.517  47.066   2.619  0.00  0.00    +0.000 C 
ENDBRANCH  69  70
ENDBRANCH  66  69
ENDBRANCH  62  66
ENDBRANCH  61  64
BRANCH  61  73
ATOM     73  CB  LEU A   2      -2.105  48.524   6.534  0.00  0.00    +0.029 C 
BRANCH  73  74
ATOM     74  CG  LEU A   2      -1.396  47.407   7.307  0.00  0.00    +0.002 C 
ATOM     75  CD2 LEU A   2      -1.581  47.509   8.845  0.00  0.00    +0.000 C 
ATOM     76  CD1 LEU A   2       0.073  47.380   6.942  0.00  0.00    +0.000 C 
ENDBRANCH  73  74
ENDBRANCH  61  73
ENDBRANCH  57  61
ENDBRANCH  56  58
BRANCH  56  77
ATOM     77  CB  ASP A   3      -7.156  51.371   6.467  0.00  0.00    +0.143 C 
BRANCH  77  78
ATOM     78  CG  ASP A   3      -8.117  52.308   5.773  0.00  0.00    +0.367 C 
ATOM     79  OD2 ASP A   3      -9.343  52.073   5.868  0.00  0.00    -0.246 OA
ATOM     80  OD1 ASP A   3      -7.654  53.265   5.104  0.00  0.00    -0.246 OA
ENDBRANCH  77  78
ENDBRANCH  56  77
ENDBRANCH  52  56
ENDBRANCH  51  54
BRANCH  51  81
ATOM     81  CB  THR A   4      -2.959  55.746   5.509  0.00  0.00    +0.137 C 
ATOM     82  CG2 THR A   4      -1.705  54.875   5.773  0.00  0.00    +0.034 C 
BRANCH  81  83
ATOM     83  OG1 THR A   4      -3.295  55.674   4.113  0.00  0.00    -0.382 OA
ATOM     84  HG1 THR A   4      -4.090  56.238   3.937  0.00  0.00    +0.210 HD
ENDBRANCH  81  83
ENDBRANCH  51  81
ENDBRANCH  47  51
ENDBRANCH  46  49
ENDBRANCH   1  46
TORSDOF 35
REMARK  Name = ../refined-set-2016/2q63/2q63_pocket.pdb
REMARK  225 active torsions:
REMARK  status: ('A' for Active; 'I' for Inactive)
REMARK    1  A    between atoms: _1  and  _3
REMARK    2  A    between atoms: _3  and  _4
REMARK    3  A    between atoms: _3  and  _6
REMARK    4  A    between atoms: _6  and  _7
REMARK    5  A    between atoms: _7  and  _8
REMARK    6  A    between atoms: _8  and  _9
REMARK    7  A    between atoms: _18  and  _20
REMARK    8  A    between atoms: _20  and  _21
REMARK    9  A    between atoms: _20  and  _23
REMARK   10  A    between atoms: _23  and  _24
REMARK   11  A    between atoms: _27  and  _29
REMARK   12  A    between atoms: _29  and  _30
REMARK   13  A    between atoms: _29  and  _32
REMARK   14  A    between atoms: _32  and  _33
REMARK   15  A    between atoms: _36  and  _38
REMARK   16  A    between atoms: _38  and  _39
REMARK   17  A    between atoms: _38  and  _41
REMARK   18  A    between atoms: _41  and  _42
REMARK   19  A    between atoms: _45  and  _47
REMARK   20  A    between atoms: _47  and  _48
REMARK   21  A    between atoms: _47  and  _50
REMARK   22  A    between atoms: _50  and  _51
REMARK   23  A    between atoms: _54  and  _56
REMARK   24  A    between atoms: _56  and  _57
REMARK   25  A    between atoms: _59  and  _61
REMARK   26  A    between atoms: _61  and  _62
REMARK   27  A    between atoms: _65  and  _67
REMARK   28  A    between atoms: _67  and  _68
REMARK   29  A    between atoms: _67  and  _70
REMARK   30  A    between atoms: _70  and  _71
REMARK   31  A    between atoms: _74  and  _76
REMARK   32  A    between atoms: _76  and  _77
REMARK   33  A    between atoms: _76  and  _79
REMARK   34  A    between atoms: _79  and  _80
REMARK   35  A    between atoms: _85  and  _87
REMARK   36  A    between atoms: _87  and  _88
REMARK   37  A    between atoms: _87  and  _90
REMARK   38  A    between atoms: _90  and  _91
REMARK   39  A    between atoms: _94  and  _96
REMARK   40  A    between atoms: _96  and  _97
REMARK   41  A    between atoms: _96  and  _99
REMARK   42  A    between atoms: _102  and  _104
REMARK   43  A    between atoms: _104  and  _105
REMARK   44  A    between atoms: _104  and  _107
REMARK   45  A    between atoms: _107  and  _108
REMARK   46  A    between atoms: _108  and  _109
REMARK   47  A    between atoms: _109  and  _110
REMARK   48  A    between atoms: _110  and  _111
REMARK   49  A    between atoms: _115  and  _117
REMARK   50  A    between atoms: _117  and  _118
REMARK   51  A    between atoms: _117  and  _120
REMARK   52  A    between atoms: _120  and  _121
REMARK   53  A    between atoms: _124  and  _126
REMARK   54  A    between atoms: _126  and  _127
REMARK   55  A    between atoms: _129  and  _131
REMARK   56  A    between atoms: _131  and  _132
REMARK   57  A    between atoms: _134  and  _136
REMARK   58  A    between atoms: _136  and  _137
REMARK   59  A    between atoms: _136  and  _139
REMARK   60  A    between atoms: _139  and  _140
REMARK   61  A    between atoms: _143  and  _145
REMARK   62  A    between atoms: _145  and  _146
REMARK   63  A    between atoms: _148  and  _150
REMARK   64  A    between atoms: _150  and  _151
REMARK   65  A    between atoms: _153  and  _155
REMARK   66  A    between atoms: _155  and  _156
REMARK   67  A    between atoms: _155  and  _158
REMARK   68  A    between atoms: _158  and  _159
REMARK   69  A    between atoms: _162  and  _164
REMARK   70  A    between atoms: _164  and  _165
REMARK   71  A    between atoms: _164  and  _167
REMARK   72  A    between atoms: _167  and  _168
REMARK   73  A    between atoms: _172  and  _173
REMARK   74  A    between atoms: _178  and  _180
REMARK   75  A    between atoms: _180  and  _181
REMARK   76  A    between atoms: _180  and  _183
REMARK   77  A    between atoms: _183  and  _184
REMARK   78  A    between atoms: _188  and  _189
REMARK   79  A    between atoms: _194  and  _196
REMARK   80  A    between atoms: _196  and  _197
REMARK   81  A    between atoms: _196  and  _199
REMARK   82  A    between atoms: _202  and  _204
REMARK   83  A    between atoms: _204  and  _205
REMARK   84  A    between atoms: _204  and  _207
REMARK   85  A    between atoms: _207  and  _208
REMARK   86  A    between atoms: _213  and  _215
REMARK   87  A    between atoms: _215  and  _216
REMARK   88  A    between atoms: _215  and  _218
REMARK   89  A    between atoms: _218  and  _219
REMARK   90  A    between atoms: _222  and  _224
REMARK   91  A    between atoms: _224  and  _225
REMARK   92  A    between atoms: _224  and  _227
REMARK   93  A    between atoms: _227  and  _228
REMARK   94  A    between atoms: _231  and  _233
REMARK   95  A    between atoms: _233  and  _234
REMARK   96  A    between atoms: _236  and  _238
REMARK   97  A    between atoms: _238  and  _239
REMARK   98  A    between atoms: _238  and  _241
REMARK   99  A    between atoms: _241  and  _242
REMARK  100  A    between atoms: _242  and  _243
REMARK  101  A    between atoms: _243  and  _244
REMARK  102  A    between atoms: _253  and  _255
REMARK  103  A    between atoms: _255  and  _256
REMARK  104  A    between atoms: _255  and  _258
REMARK  105  A    between atoms: _258  and  _259
REMARK  106  A    between atoms: _264  and  _266
REMARK  107  A    between atoms: _266  and  _267
REMARK  108  A    between atoms: _266  and  _269
REMARK  109  A    between atoms: _269  and  _270
REMARK  110  A    between atoms: _270  and  _271
REMARK  111  A    between atoms: _271  and  _272
REMARK  112  A    between atoms: _281  and  _283
REMARK  113  A    between atoms: _283  and  _284
REMARK  114  A    between atoms: _283  and  _286
REMARK  115  A    between atoms: _286  and  _287
REMARK  116  A    between atoms: _290  and  _292
REMARK  117  A    between atoms: _292  and  _293
REMARK  118  A    between atoms: _292  and  _295
REMARK  119  A    between atoms: _295  and  _296
REMARK  120  A    between atoms: _299  and  _301
REMARK  121  A    between atoms: _301  and  _302
REMARK  122  A    between atoms: _301  and  _304
REMARK  123  A    between atoms: _304  and  _305
REMARK  124  A    between atoms: _308  and  _310
REMARK  125  A    between atoms: _310  and  _311
REMARK  126  A    between atoms: _310  and  _313
REMARK  127  A    between atoms: _313  and  _314
REMARK  128  A    between atoms: _317  and  _319
REMARK  129  A    between atoms: _319  and  _320
REMARK  130  A    between atoms: _319  and  _322
REMARK  131  A    between atoms: _322  and  _323
REMARK  132  A    between atoms: _326  and  _328
REMARK  133  A    between atoms: _328  and  _329
REMARK  134  A    between atoms: _331  and  _333
REMARK  135  A    between atoms: _333  and  _334
REMARK  136  A    between atoms: _337  and  _339
REMARK  137  A    between atoms: _339  and  _340
REMARK  138  A    between atoms: _339  and  _342
REMARK  139  A    between atoms: _342  and  _343
REMARK  140  A    between atoms: _346  and  _348
REMARK  141  A    between atoms: _348  and  _349
REMARK  142  A    between atoms: _348  and  _351
REMARK  143  A    between atoms: _351  and  _352
REMARK  144  A    between atoms: _357  and  _359
REMARK  145  A    between atoms: _359  and  _360
REMARK  146  A    between atoms: _359  and  _362
REMARK  147  A    between atoms: _362  and  _363
REMARK  148  A    between atoms: _366  and  _368
REMARK  149  A    between atoms: _368  and  _369
REMARK  150  A    between atoms: _368  and  _371
REMARK  151  A    between atoms: _374  and  _376
REMARK  152  A    between atoms: _376  and  _377
REMARK  153  A    between atoms: _376  and  _379
REMARK  154  A    between atoms: _379  and  _380
REMARK  155  A    between atoms: _380  and  _381
REMARK  156  A    between atoms: _381  and  _382
REMARK  157  A    between atoms: _382  and  _383
REMARK  158  A    between atoms: _387  and  _389
REMARK  159  A    between atoms: _389  and  _390
REMARK  160  A    between atoms: _389  and  _392
REMARK  161  A    between atoms: _392  and  _393
REMARK  162  A    between atoms: _393  and  _394
REMARK  163  A    between atoms: _396  and  _398
REMARK  164  A    between atoms: _398  and  _399
REMARK  165  A    between atoms: _398  and  _401
REMARK  166  A    between atoms: _401  and  _402
REMARK  167  A    between atoms: _405  and  _407
REMARK  168  A    between atoms: _407  and  _408
REMARK  169  A    between atoms: _410  and  _412
REMARK  170  A    between atoms: _412  and  _413
REMARK  171  A    between atoms: _415  and  _417
REMARK  172  A    between atoms: _417  and  _418
REMARK  173  A    between atoms: _417  and  _420
REMARK  174  A    between atoms: _420  and  _421
REMARK  175  A    between atoms: _424  and  _426
REMARK  176  A    between atoms: _426  and  _427
REMARK  177  A    between atoms: _429  and  _431
REMARK  178  A    between atoms: _431  and  _432
REMARK  179  A    between atoms: _434  and  _436
REMARK  180  A    between atoms: _436  and  _437
REMARK  181  A    between atoms: _436  and  _439
REMARK  182  A    between atoms: _439  and  _440
REMARK  183  A    between atoms: _446  and  _448
REMARK  184  A    between atoms: _448  and  _449
REMARK  185  A    between atoms: _448  and  _451
REMARK  186  A    between atoms: _451  and  _452
REMARK  187  A    between atoms: _455  and  _457
REMARK  188  A    between atoms: _457  and  _458
REMARK  189  A    between atoms: _457  and  _460
REMARK  190  A    between atoms: _463  and  _465
REMARK  191  A    between atoms: _465  and  _466
REMARK  192  A    between atoms: _465  and  _468
REMARK  193  A    between atoms: _468  and  _469
REMARK  194  A    between atoms: _472  and  _474
REMARK  195  A    between atoms: _474  and  _475
REMARK  196  A    between atoms: _474  and  _477
REMARK  197  A    between atoms: _477  and  _478
REMARK  198  A    between atoms: _482  and  _483
REMARK  199  A    between atoms: _488  and  _490
REMARK  200  A    between atoms: _490  and  _491
REMARK  201  A    between atoms: _490  and  _493
REMARK  202  A    between atoms: _496  and  _498
REMARK  203  A    between atoms: _498  and  _499
REMARK  204  A    between atoms: _498  and  _501
REMARK  205  A    between atoms: _501  and  _502
REMARK  206  A    between atoms: _507  and  _509
REMARK  207  A    between atoms: _509  and  _510
REMARK  208  A    between atoms: _509  and  _512
REMARK  209  A    between atoms: _512  and  _513
REMARK  210  A    between atoms: _516  and  _518
REMARK  211  A    between atoms: _518  and  _519
REMARK  212  A    between atoms: _518  and  _521
REMARK  213  A    between atoms: _521  and  _522
REMARK  214  A    between atoms: _525  and  _527
REMARK  215  A    between atoms: _527  and  _528
REMARK  216  A    between atoms: _530  and  _532
REMARK  217  A    between atoms: _532  and  _533
REMARK  218  A    between atoms: _532  and  _535
REMARK  219  A    between atoms: _535  and  _536
REMARK  220  A    between atoms: _536  and  _537
REMARK  221  A    between atoms: _537  and  _538
REMARK  222  A    between atoms: _547  and  _549
REMARK  223  A    between atoms: _549  and  _550
REMARK  224  A    between atoms: _549  and  _552
REMARK  225  A    between atoms: _552  and  _553
REMARK                            x       y       z     vdW  Elec       q    Type
REMARK                         _______ _______ _______ _____ _____    ______ ____
ROOT
ATOM      1  C   GLY A   5     -18.103  56.710   5.040  0.00  0.00    +0.243 C 
ATOM      2  O   GLY A   5     -18.947  57.604   5.175  0.00  0.00    -0.273 OA
ATOM      3  N   ILE A   6     -17.707  56.249   3.857  0.00  0.00    -0.297 N 
ATOM      4  H   ILE A   6     -16.899  55.596   3.813  0.00  0.00    +0.150 HD
ENDROOT
BRANCH   3   5
ATOM      5  CA  ILE A   6     -18.379  56.636   2.615  0.00  0.00    +0.149 C 
BRANCH   5   6
ATOM      6  C   ILE A   6     -19.735  55.938   2.529  0.00  0.00    +0.241 C 
ATOM      7  O   ILE A   6     -19.856  54.748   2.820  0.00  0.00    -0.273 OA
ATOM      8  N   GLY A   7     -20.759  56.693   2.171  0.00  0.00    -0.295 N 
ATOM      9  H   GLY A   7     -20.612  57.710   2.009  0.00  0.00    +0.150 HD
BRANCH   8  10
ATOM     10  CA  GLY A   7     -22.094  56.123   1.999  0.00  0.00    +0.176 C 
BRANCH  10  11
ATOM     11  C   GLY A   7     -22.955  56.030   3.243  0.00  0.00    +0.243 C 
ATOM     12  N   GLY A   8     -22.371  56.308   4.402  0.00  0.00    -0.295 N 
ATOM     13  H   GLY A   8     -21.345  56.474   4.437  0.00  0.00    +0.150 HD
ATOM     14  O   GLY A   7     -24.149  55.711   3.151  0.00  0.00    -0.273 OA
BRANCH  12  15
ATOM     15  CA  GLY A   8     -23.157  56.382   5.622  0.00  0.00    +0.176 C 
BRANCH  15  16
ATOM     16  C   GLY A   8     -22.445  55.932   6.881  0.00  0.00    +0.243 C 
ATOM     17  N   PHE A   9     -23.252  55.546   7.867  0.00  0.00    -0.297 N 
ATOM     18  H   PHE A   9     -24.263  55.422   7.658  0.00  0.00    +0.150 HD
ATOM     19  O   GLY A   8     -21.210  55.918   6.952  0.00  0.00    -0.273 OA
BRANCH  17  20
ATOM     20  CA  PHE A   9     -22.790  55.289   9.224  0.00  0.00    +0.153 C 
BRANCH  20  21
ATOM     21  C   PHE A   9     -23.103  53.853   9.678  0.00  0.00    +0.241 C 
ATOM     22  N   ILE A  10     -22.250  53.298  10.530  0.00  0.00    -0.298 N 
ATOM     23  H   ILE A  10     -21.343  53.766  10.729  0.00  0.00    +0.150 HD
ATOM     24  O   PHE A   9     -24.110  53.257   9.268  0.00  0.00    -0.273 OA
BRANCH  22  25
ATOM     25  CA  ILE A  10     -22.576  52.024  11.197  0.00  0.00    +0.137 C 
BRANCH  25  26
ATOM     26  C   ILE A  10     -22.472  52.135  12.710  0.00  0.00    +0.227 C 
ATOM     27  O   ILE A  10     -21.723  52.963  13.222  0.00  0.00    -0.286 OA
ENDBRANCH  25  26
BRANCH  25  28
ATOM     28  CB  ILE A  10     -21.708  50.829  10.697  0.00  0.00    +0.026 C 
ATOM     29  CG2 ILE A  10     -21.941  50.597   9.209  0.00  0.00    +0.002 C 
BRANCH  28  30
ATOM     30  CG1 ILE A  10     -20.218  51.014  11.034  0.00  0.00    +0.002 C 
ATOM     31  CD1 ILE A  10     -19.342  49.796  10.714  0.00  0.00    +0.000 C 
ENDBRANCH  28  30
ENDBRANCH  25  28
ENDBRANCH  22  25
ENDBRANCH  20  21
BRANCH  20  32
ATOM     32  CB  PHE A   9     -23.469  56.286  10.182  0.00  0.00    +0.055 C 
BRANCH  32  33
ATOM     33  CG  PHE A   9     -22.891  57.682  10.137  0.00  0.00    -0.020 A 
ATOM     34  CD2 PHE A   9     -22.007  58.112  11.125  0.00  0.00    -0.004 A 
ATOM     35  CE2 PHE A   9     -21.462  59.403  11.091  0.00  0.00    -0.000 A 
ATOM     36  CZ  PHE A   9     -21.810  60.278  10.061  0.00  0.00    -0.000 A 
ATOM     37  CE1 PHE A   9     -22.697  59.864   9.076  0.00  0.00    -0.000 A 
ATOM     38  CD1 PHE A   9     -23.239  58.573   9.120  0.00  0.00    -0.004 A 
ENDBRANCH  32  33
ENDBRANCH  20  32
ENDBRANCH  17  20
ENDBRANCH  15  16
ENDBRANCH  12  15
ENDBRANCH  10  11
ENDBRANCH   8  10
ENDBRANCH   5   6
BRANCH   5  39
ATOM     39  CB  ILE A   6     -17.486  56.381   1.373  0.00  0.00    +0.027 C 
ATOM     40  CG2 ILE A   6     -18.215  55.590   0.302  0.00  0.00    +0.002 C 
BRANCH  39  41
ATOM     41  CG1 ILE A   6     -17.052  57.721   0.786  0.00  0.00    +0.002 C 
ATOM     42  CD1 ILE A   6     -15.942  57.635  -0.228  0.00  0.00    +0.000 C 
ENDBRANCH  39  41
ENDBRANCH   5  39
ENDBRANCH   3   5
BRANCH   1  43
ATOM     43  CA  GLY A   5     -17.454  56.072   6.248  0.00  0.00    +0.176 C 
BRANCH  43  46
ATOM     44  C   GLY A   4     -17.930  56.963   8.465  0.00  0.00    +0.243 C 
ATOM     45  O   GLY A   4     -16.752  57.248   8.688  0.00  0.00    -0.273 OA
ATOM     46  N   GLY A   5     -18.332  56.302   7.387  0.00  0.00    -0.295 N 
ATOM     47  H   GLY A   5     -19.305  55.936   7.354  0.00  0.00    +0.150 HD
BRANCH  44  48
ATOM     48  CA  GLY A   4     -19.016  57.319   9.452  0.00  0.00    +0.176 C 
BRANCH  48  51
ATOM     49  C   ILE A   3     -19.119  55.928  11.434  0.00  0.00    +0.241 C 
ATOM     50  O   ILE A   3     -19.892  55.134  10.900  0.00  0.00    -0.273 OA
ATOM     51  N   GLY A   4     -18.637  56.994  10.817  0.00  0.00    -0.295 N 
ATOM     52  H   GLY A   4     -17.971  57.614  11.320  0.00  0.00    +0.150 HD
BRANCH  49  53
ATOM     53  CA  ILE A   3     -18.666  55.737  12.872  0.00  0.00    +0.149 C 
BRANCH  53  56
ATOM     54  C   MET A   2     -20.115  55.900  14.801  0.00  0.00    +0.241 C 
ATOM     55  O   MET A   2     -19.487  56.862  15.234  0.00  0.00    -0.273 OA
ATOM     56  N   ILE A   3     -19.742  55.231  13.720  0.00  0.00    -0.297 N 
ATOM     57  H   ILE A   3     -20.218  54.340  13.474  0.00  0.00    +0.150 HD
BRANCH  54  58
ATOM     58  CA  MET A   2     -21.372  55.419  15.506  0.00  0.00    +0.149 C 
BRANCH  58  61
ATOM     59  C   LYS A   1     -20.811  54.137  17.531  0.00  0.00    +0.238 C 
ATOM     60  O   LYS A   1     -20.942  53.049  16.972  0.00  0.00    -0.274 OA
ATOM     61  N   MET A   2     -21.120  55.298  16.952  0.00  0.00    -0.297 N 
ATOM     62  H   MET A   2     -21.186  56.150  17.544  0.00  0.00    +0.150 HD
BRANCH  59  63
ATOM     63  CA  LYS A   1     -20.301  54.211  18.959  0.00  0.00    +0.145 C 
BRANCH  63  64
ATOM     64  N   LYS A   1     -20.908  53.155  19.773  0.00  0.00    -0.238 NA
ATOM     65  H   LYS A   1     -21.210  52.277  19.305  0.00  0.00    +0.142 HD
ENDBRANCH  63  64
BRANCH  63  66
ATOM     66  CB  LYS A   1     -18.773  54.079  18.973  0.00  0.00    +0.026 C 
BRANCH  66  67
ATOM     67  CG  LYS A   1     -18.012  55.292  18.438  0.00  0.00    -0.000 C 
BRANCH  67  68
ATOM     68  CD  LYS A   1     -16.496  55.098  18.555  0.00  0.00    -0.024 C 
BRANCH  68  69
ATOM     69  CE  LYS A   1     -15.706  56.224  17.889  0.00  0.00    -0.086 C 
BRANCH  69  70
ATOM     70  NZ  LYS A   1     -15.625  57.447  18.741  0.00  0.00    +0.380 N 
ATOM     71  HZ1 LYS A   1     -15.155  57.212  19.638  0.00  0.00    -0.089 HD
ATOM     72  HZ2 LYS A   1     -16.585  57.799  18.933  0.00  0.00    -0.089 HD
ATOM     73  HZ3 LYS A   1     -15.079  58.179  18.243  0.00  0.00    -0.089 HD
ENDBRANCH  69  70
ENDBRANCH  68  69
ENDBRANCH  67  68
ENDBRANCH  66  67
ENDBRANCH  63  66
ENDBRANCH  59  63
ENDBRANCH  58  61
BRANCH  58  74
ATOM     74  CB  MET A   2     -22.506  56.408  15.212  0.00  0.00    +0.041 C 
BRANCH  74  75
ATOM     75  CG  MET A   2     -23.858  56.079  15.822  0.00  0.00    +0.060 C 
BRANCH  75  76
ATOM     76  SD  MET A   2     -24.409  54.390  15.500  0.00  0.00    -0.139 S 
ATOM     77  CE  MET A   2     -26.171  54.577  15.795  0.00  0.00    +0.069 C 
ENDBRANCH  75  76
ENDBRANCH  74  75
ENDBRANCH  58  74
ENDBRANCH  54  58
ENDBRANCH  53  56
BRANCH  53  78
ATOM     78  CB  ILE A   3     -17.381  54.873  12.926  0.00  0.00    +0.027 C 
ATOM     79  CG2 ILE A   3     -16.734  54.977  14.303  0.00  0.00    +0.002 C 
BRANCH  78  80
ATOM     80  CG1 ILE A   3     -17.686  53.428  12.548  0.00  0.00    +0.002 C 
ATOM     81  CD1 ILE A   3     -16.511  52.547  12.506  0.00  0.00    +0.000 C 
ENDBRANCH  78  80
ENDBRANCH  53  78
ENDBRANCH  49  53
ENDBRANCH  48  51
ENDBRANCH  44  48
ENDBRANCH  43  46
ENDBRANCH   1  43
TORSDOF 36
REMARK  Name = ../refined-set-2016/2q63/2q63_pocket.pdb
REMARK  225 active torsions:
REMARK  status: ('A' for Active; 'I' for Inactive)
REMARK    1  A    between atoms: _1  and  _3
REMARK    2  A    between atoms: _3  and  _4
REMARK    3  A    between atoms: _3  and  _6
REMARK    4  A    between atoms: _6  and  _7
REMARK    5  A    between atoms: _7  and  _8
REMARK    6  A    between atoms: _8  and  _9
REMARK    7  A    between atoms: _18  and  _20
REMARK    8  A    between atoms: _20  and  _21
REMARK    9  A    between atoms: _20  and  _23
REMARK   10  A    between atoms: _23  and  _24
REMARK   11  A    between atoms: _27  and  _29
REMARK   12  A    between atoms: _29  and  _30
REMARK   13  A    between atoms: _29  and  _32
REMARK   14  A    between atoms: _32  and  _33
REMARK   15  A    between atoms: _36  and  _38
REMARK   16  A    between atoms: _38  and  _39
REMARK   17  A    between atoms: _38  and  _41
REMARK   18  A    between atoms: _41  and  _42
REMARK   19  A    between atoms: _45  and  _47
REMARK   20  A    between atoms: _47  and  _48
REMARK   21  A    between atoms: _47  and  _50
REMARK   22  A    between atoms: _50  and  _51
REMARK   23  A    between atoms: _54  and  _56
REMARK   24  A    between atoms: _56  and  _57
REMARK   25  A    between atoms: _59  and  _61
REMARK   26  A    between atoms: _61  and  _62
REMARK   27  A    between atoms: _65  and  _67
REMARK   28  A    between atoms: _67  and  _68
REMARK   29  A    between atoms: _67  and  _70
REMARK   30  A    between atoms: _70  and  _71
REMARK   31  A    between atoms: _74  and  _76
REMARK   32  A    between atoms: _76  and  _77
REMARK   33  A    between atoms: _76  and  _79
REMARK   34  A    between atoms: _79  and  _80
REMARK   35  A    between atoms: _85  and  _87
REMARK   36  A    between atoms: _87  and  _88
REMARK   37  A    between atoms: _87  and  _90
REMARK   38  A    between atoms: _90  and  _91
REMARK   39  A    between atoms: _94  and  _96
REMARK   40  A    between atoms: _96  and  _97
REMARK   41  A    between atoms: _96  and  _99
REMARK   42  A    between atoms: _102  and  _104
REMARK   43  A    between atoms: _104  and  _105
REMARK   44  A    between atoms: _104  and  _107
REMARK   45  A    between atoms: _107  and  _108
REMARK   46  A    between atoms: _108  and  _109
REMARK   47  A    between atoms: _109  and  _110
REMARK   48  A    between atoms: _110  and  _111
REMARK   49  A    between atoms: _115  and  _117
REMARK   50  A    between atoms: _117  and  _118
REMARK   51  A    between atoms: _117  and  _120
REMARK   52  A    between atoms: _120  and  _121
REMARK   53  A    between atoms: _124  and  _126
REMARK   54  A    between atoms: _126  and  _127
REMARK   55  A    between atoms: _129  and  _131
REMARK   56  A    between atoms: _131  and  _132
REMARK   57  A    between atoms: _134  and  _136
REMARK   58  A    between atoms: _136  and  _137
REMARK   59  A    between atoms: _136  and  _139
REMARK   60  A    between atoms: _139  and  _140
REMARK   61  A    between atoms: _143  and  _145
REMARK   62  A    between atoms: _145  and  _146
REMARK   63  A    between atoms: _148  and  _150
REMARK   64  A    between atoms: _150  and  _151
REMARK   65  A    between atoms: _153  and  _155
REMARK   66  A    between atoms: _155  and  _156
REMARK   67  A    between atoms: _155  and  _158
REMARK   68  A    between atoms: _158  and  _159
REMARK   69  A    between atoms: _162  and  _164
REMARK   70  A    between atoms: _164  and  _165
REMARK   71  A    between atoms: _164  and  _167
REMARK   72  A    between atoms: _167  and  _168
REMARK   73  A    between atoms: _172  and  _173
REMARK   74  A    between atoms: _178  and  _180
REMARK   75  A    between atoms: _180  and  _181
REMARK   76  A    between atoms: _180  and  _183
REMARK   77  A    between atoms: _183  and  _184
REMARK   78  A    between atoms: _188  and  _189
REMARK   79  A    between atoms: _194  and  _196
REMARK   80  A    between atoms: _196  and  _197
REMARK   81  A    between atoms: _196  and  _199
REMARK   82  A    between atoms: _202  and  _204
REMARK   83  A    between atoms: _204  and  _205
REMARK   84  A    between atoms: _204  and  _207
REMARK   85  A    between atoms: _207  and  _208
REMARK   86  A    between atoms: _213  and  _215
REMARK   87  A    between atoms: _215  and  _216
REMARK   88  A    between atoms: _215  and  _218
REMARK   89  A    between atoms: _218  and  _219
REMARK   90  A    between atoms: _222  and  _224
REMARK   91  A    between atoms: _224  and  _225
REMARK   92  A    between atoms: _224  and  _227
REMARK   93  A    between atoms: _227  and  _228
REMARK   94  A    between atoms: _231  and  _233
REMARK   95  A    between atoms: _233  and  _234
REMARK   96  A    between atoms: _236  and  _238
REMARK   97  A    between atoms: _238  and  _239
REMARK   98  A    between atoms: _238  and  _241
REMARK   99  A    between atoms: _241  and  _242
REMARK  100  A    between atoms: _242  and  _243
REMARK  101  A    between atoms: _243  and  _244
REMARK  102  A    between atoms: _253  and  _255
REMARK  103  A    between atoms: _255  and  _256
REMARK  104  A    between atoms: _255  and  _258
REMARK  105  A    between atoms: _258  and  _259
REMARK  106  A    between atoms: _264  and  _266
REMARK  107  A    between atoms: _266  and  _267
REMARK  108  A    between atoms: _266  and  _269
REMARK  109  A    between atoms: _269  and  _270
REMARK  110  A    between atoms: _270  and  _271
REMARK  111  A    between atoms: _271  and  _272
REMARK  112  A    between atoms: _281  and  _283
REMARK  113  A    between atoms: _283  and  _284
REMARK  114  A    between atoms: _283  and  _286
REMARK  115  A    between atoms: _286  and  _287
REMARK  116  A    between atoms: _290  and  _292
REMARK  117  A    between atoms: _292  and  _293
REMARK  118  A    between atoms: _292  and  _295
REMARK  119  A    between atoms: _295  and  _296
REMARK  120  A    between atoms: _299  and  _301
REMARK  121  A    between atoms: _301  and  _302
REMARK  122  A    between atoms: _301  and  _304
REMARK  123  A    between atoms: _304  and  _305
REMARK  124  A    between atoms: _308  and  _310
REMARK  125  A    between atoms: _310  and  _311
REMARK  126  A    between atoms: _310  and  _313
REMARK  127  A    between atoms: _313  and  _314
REMARK  128  A    between atoms: _317  and  _319
REMARK  129  A    between atoms: _319  and  _320
REMARK  130  A    between atoms: _319  and  _322
REMARK  131  A    between atoms: _322  and  _323
REMARK  132  A    between atoms: _326  and  _328
REMARK  133  A    between atoms: _328  and  _329
REMARK  134  A    between atoms: _331  and  _333
REMARK  135  A    between atoms: _333  and  _334
REMARK  136  A    between atoms: _337  and  _339
REMARK  137  A    between atoms: _339  and  _340
REMARK  138  A    between atoms: _339  and  _342
REMARK  139  A    between atoms: _342  and  _343
REMARK  140  A    between atoms: _346  and  _348
REMARK  141  A    between atoms: _348  and  _349
REMARK  142  A    between atoms: _348  and  _351
REMARK  143  A    between atoms: _351  and  _352
REMARK  144  A    between atoms: _357  and  _359
REMARK  145  A    between atoms: _359  and  _360
REMARK  146  A    between atoms: _359  and  _362
REMARK  147  A    between atoms: _362  and  _363
REMARK  148  A    between atoms: _366  and  _368
REMARK  149  A    between atoms: _368  and  _369
REMARK  150  A    between atoms: _368  and  _371
REMARK  151  A    between atoms: _374  and  _376
REMARK  152  A    between atoms: _376  and  _377
REMARK  153  A    between atoms: _376  and  _379
REMARK  154  A    between atoms: _379  and  _380
REMARK  155  A    between atoms: _380  and  _381
REMARK  156  A    between atoms: _381  and  _382
REMARK  157  A    between atoms: _382  and  _383
REMARK  158  A    between atoms: _387  and  _389
REMARK  159  A    between atoms: _389  and  _390
REMARK  160  A    between atoms: _389  and  _392
REMARK  161  A    between atoms: _392  and  _393
REMARK  162  A    between atoms: _393  and  _394
REMARK  163  A    between atoms: _396  and  _398
REMARK  164  A    between atoms: _398  and  _399
REMARK  165  A    between atoms: _398  and  _401
REMARK  166  A    between atoms: _401  and  _402
REMARK  167  A    between atoms: _405  and  _407
REMARK  168  A    between atoms: _407  and  _408
REMARK  169  A    between atoms: _410  and  _412
REMARK  170  A    between atoms: _412  and  _413
REMARK  171  A    between atoms: _415  and  _417
REMARK  172  A    between atoms: _417  and  _418
REMARK  173  A    between atoms: _417  and  _420
REMARK  174  A    between atoms: _420  and  _421
REMARK  175  A    between atoms: _424  and  _426
REMARK  176  A    between atoms: _426  and  _427
REMARK  177  A    between atoms: _429  and  _431
REMARK  178  A    between atoms: _431  and  _432
REMARK  179  A    between atoms: _434  and  _436
REMARK  180  A    between atoms: _436  and  _437
REMARK  181  A    between atoms: _436  and  _439
REMARK  182  A    between atoms: _439  and  _440
REMARK  183  A    between atoms: _446  and  _448
REMARK  184  A    between atoms: _448  and  _449
REMARK  185  A    between atoms: _448  and  _451
REMARK  186  A    between atoms: _451  and  _452
REMARK  187  A    between atoms: _455  and  _457
REMARK  188  A    between atoms: _457  and  _458
REMARK  189  A    between atoms: _457  and  _460
REMARK  190  A    between atoms: _463  and  _465
REMARK  191  A    between atoms: _465  and  _466
REMARK  192  A    between atoms: _465  and  _468
REMARK  193  A    between atoms: _468  and  _469
REMARK  194  A    between atoms: _472  and  _474
REMARK  195  A    between atoms: _474  and  _475
REMARK  196  A    between atoms: _474  and  _477
REMARK  197  A    between atoms: _477  and  _478
REMARK  198  A    between atoms: _482  and  _483
REMARK  199  A    between atoms: _488  and  _490
REMARK  200  A    between atoms: _490  and  _491
REMARK  201  A    between atoms: _490  and  _493
REMARK  202  A    between atoms: _496  and  _498
REMARK  203  A    between atoms: _498  and  _499
REMARK  204  A    between atoms: _498  and  _501
REMARK  205  A    between atoms: _501  and  _502
REMARK  206  A    between atoms: _507  and  _509
REMARK  207  A    between atoms: _509  and  _510
REMARK  208  A    between atoms: _509  and  _512
REMARK  209  A    between atoms: _512  and  _513
REMARK  210  A    between atoms: _516  and  _518
REMARK  211  A    between atoms: _518  and  _519
REMARK  212  A    between atoms: _518  and  _521
REMARK  213  A    between atoms: _521  and  _522
REMARK  214  A    between atoms: _525  and  _527
REMARK  215  A    between atoms: _527  and  _528
REMARK  216  A    between atoms: _530  and  _532
REMARK  217  A    between atoms: _532  and  _533
REMARK  218  A    between atoms: _532  and  _535
REMARK  219  A    between atoms: _535  and  _536
REMARK  220  A    between atoms: _536  and  _537
REMARK  221  A    between atoms: _537  and  _538
REMARK  222  A    between atoms: _547  and  _549
REMARK  223  A    between atoms: _549  and  _550
REMARK  224  A    between atoms: _549  and  _552
REMARK  225  A    between atoms: _552  and  _553
REMARK                            x       y       z     vdW  Elec       q    Type
REMARK                         _______ _______ _______ _____ _____    ______ ____
ROOT
ATOM      1  CA  VAL A   1     -20.060  49.600  16.557  0.00  0.00    +0.133 C 
ENDROOT
BRANCH   1   2
ATOM      2  CB  VAL A   1     -18.696  49.959  15.926  0.00  0.00    +0.023 C 
ATOM      3  CG2 VAL A   1     -18.155  51.263  16.493  0.00  0.00    +0.002 C 
ATOM      4  CG1 VAL A   1     -18.804  50.027  14.396  0.00  0.00    +0.002 C 
ENDBRANCH   1   2
BRANCH   1   5
ATOM      5  N   VAL A   1     -21.111  50.499  16.099  0.00  0.00    -0.239 NA
ATOM      6  H   VAL A   1     -21.151  51.464  16.485  0.00  0.00    +0.142 HD
ENDBRANCH   1   5
BRANCH   1   7
ATOM      7  C   VAL A   1     -19.927  49.552  18.090  0.00  0.00    +0.224 C 
ATOM      8  O   VAL A   1     -20.521  50.365  18.818  0.00  0.00    -0.287 OA
ENDBRANCH   1   7
TORSDOF 3
REMARK  Name = ../refined-set-2016/2q63/2q63_pocket.pdb
REMARK  225 active torsions:
REMARK  status: ('A' for Active; 'I' for Inactive)
REMARK    1  A    between atoms: _1  and  _3
REMARK    2  A    between atoms: _3  and  _4
REMARK    3  A    between atoms: _3  and  _6
REMARK    4  A    between atoms: _6  and  _7
REMARK    5  A    between atoms: _7  and  _8
REMARK    6  A    between atoms: _8  and  _9
REMARK    7  A    between atoms: _18  and  _20
REMARK    8  A    between atoms: _20  and  _21
REMARK    9  A    between atoms: _20  and  _23
REMARK   10  A    between atoms: _23  and  _24
REMARK   11  A    between atoms: _27  and  _29
REMARK   12  A    between atoms: _29  and  _30
REMARK   13  A    between atoms: _29  and  _32
REMARK   14  A    between atoms: _32  and  _33
REMARK   15  A    between atoms: _36  and  _38
REMARK   16  A    between atoms: _38  and  _39
REMARK   17  A    between atoms: _38  and  _41
REMARK   18  A    between atoms: _41  and  _42
REMARK   19  A    between atoms: _45  and  _47
REMARK   20  A    between atoms: _47  and  _48
REMARK   21  A    between atoms: _47  and  _50
REMARK   22  A    between atoms: _50  and  _51
REMARK   23  A    between atoms: _54  and  _56
REMARK   24  A    between atoms: _56  and  _57
REMARK   25  A    between atoms: _59  and  _61
REMARK   26  A    between atoms: _61  and  _62
REMARK   27  A    between atoms: _65  and  _67
REMARK   28  A    between atoms: _67  and  _68
REMARK   29  A    between atoms: _67  and  _70
REMARK   30  A    between atoms: _70  and  _71
REMARK   31  A    between atoms: _74  and  _76
REMARK   32  A    between atoms: _76  and  _77
REMARK   33  A    between atoms: _76  and  _79
REMARK   34  A    between atoms: _79  and  _80
REMARK   35  A    between atoms: _85  and  _87
REMARK   36  A    between atoms: _87  and  _88
REMARK   37  A    between atoms: _87  and  _90
REMARK   38  A    between atoms: _90  and  _91
REMARK   39  A    between atoms: _94  and  _96
REMARK   40  A    between atoms: _96  and  _97
REMARK   41  A    between atoms: _96  and  _99
REMARK   42  A    between atoms: _102  and  _104
REMARK   43  A    between atoms: _104  and  _105
REMARK   44  A    between atoms: _104  and  _107
REMARK   45  A    between atoms: _107  and  _108
REMARK   46  A    between atoms: _108  and  _109
REMARK   47  A    between atoms: _109  and  _110
REMARK   48  A    between atoms: _110  and  _111
REMARK   49  A    between atoms: _115  and  _117
REMARK   50  A    between atoms: _117  and  _118
REMARK   51  A    between atoms: _117  and  _120
REMARK   52  A    between atoms: _120  and  _121
REMARK   53  A    between atoms: _124  and  _126
REMARK   54  A    between atoms: _126  and  _127
REMARK   55  A    between atoms: _129  and  _131
REMARK   56  A    between atoms: _131  and  _132
REMARK   57  A    between atoms: _134  and  _136
REMARK   58  A    between atoms: _136  and  _137
REMARK   59  A    between atoms: _136  and  _139
REMARK   60  A    between atoms: _139  and  _140
REMARK   61  A    between atoms: _143  and  _145
REMARK   62  A    between atoms: _145  and  _146
REMARK   63  A    between atoms: _148  and  _150
REMARK   64  A    between atoms: _150  and  _151
REMARK   65  A    between atoms: _153  and  _155
REMARK   66  A    between atoms: _155  and  _156
REMARK   67  A    between atoms: _155  and  _158
REMARK   68  A    between atoms: _158  and  _159
REMARK   69  A    between atoms: _162  and  _164
REMARK   70  A    between atoms: _164  and  _165
REMARK   71  A    between atoms: _164  and  _167
REMARK   72  A    between atoms: _167  and  _168
REMARK   73  A    between atoms: _172  and  _173
REMARK   74  A    between atoms: _178  and  _180
REMARK   75  A    between atoms: _180  and  _181
REMARK   76  A    between atoms: _180  and  _183
REMARK   77  A    between atoms: _183  and  _184
REMARK   78  A    between atoms: _188  and  _189
REMARK   79  A    between atoms: _194  and  _196
REMARK   80  A    between atoms: _196  and  _197
REMARK   81  A    between atoms: _196  and  _199
REMARK   82  A    between atoms: _202  and  _204
REMARK   83  A    between atoms: _204  and  _205
REMARK   84  A    between atoms: _204  and  _207
REMARK   85  A    between atoms: _207  and  _208
REMARK   86  A    between atoms: _213  and  _215
REMARK   87  A    between atoms: _215  and  _216
REMARK   88  A    between atoms: _215  and  _218
REMARK   89  A    between atoms: _218  and  _219
REMARK   90  A    between atoms: _222  and  _224
REMARK   91  A    between atoms: _224  and  _225
REMARK   92  A    between atoms: _224  and  _227
REMARK   93  A    between atoms: _227  and  _228
REMARK   94  A    between atoms: _231  and  _233
REMARK   95  A    between atoms: _233  and  _234
REMARK   96  A    between atoms: _236  and  _238
REMARK   97  A    between atoms: _238  and  _239
REMARK   98  A    between atoms: _238  and  _241
REMARK   99  A    between atoms: _241  and  _242
REMARK  100  A    between atoms: _242  and  _243
REMARK  101  A    between atoms: _243  and  _244
REMARK  102  A    between atoms: _253  and  _255
REMARK  103  A    between atoms: _255  and  _256
REMARK  104  A    between atoms: _255  and  _258
REMARK  105  A    between atoms: _258  and  _259
REMARK  106  A    between atoms: _264  and  _266
REMARK  107  A    between atoms: _266  and  _267
REMARK  108  A    between atoms: _266  and  _269
REMARK  109  A    between atoms: _269  and  _270
REMARK  110  A    between atoms: _270  and  _271
REMARK  111  A    between atoms: _271  and  _272
REMARK  112  A    between atoms: _281  and  _283
REMARK  113  A    between atoms: _283  and  _284
REMARK  114  A    between atoms: _283  and  _286
REMARK  115  A    between atoms: _286  and  _287
REMARK  116  A    between atoms: _290  and  _292
REMARK  117  A    between atoms: _292  and  _293
REMARK  118  A    between atoms: _292  and  _295
REMARK  119  A    between atoms: _295  and  _296
REMARK  120  A    between atoms: _299  and  _301
REMARK  121  A    between atoms: _301  and  _302
REMARK  122  A    between atoms: _301  and  _304
REMARK  123  A    between atoms: _304  and  _305
REMARK  124  A    between atoms: _308  and  _310
REMARK  125  A    between atoms: _310  and  _311
REMARK  126  A    between atoms: _310  and  _313
REMARK  127  A    between atoms: _313  and  _314
REMARK  128  A    between atoms: _317  and  _319
REMARK  129  A    between atoms: _319  and  _320
REMARK  130  A    between atoms: _319  and  _322
REMARK  131  A    between atoms: _322  and  _323
REMARK  132  A    between atoms: _326  and  _328
REMARK  133  A    between atoms: _328  and  _329
REMARK  134  A    between atoms: _331  and  _333
REMARK  135  A    between atoms: _333  and  _334
REMARK  136  A    between atoms: _337  and  _339
REMARK  137  A    between atoms: _339  and  _340
REMARK  138  A    between atoms: _339  and  _342
REMARK  139  A    between atoms: _342  and  _343
REMARK  140  A    between atoms: _346  and  _348
REMARK  141  A    between atoms: _348  and  _349
REMARK  142  A    between atoms: _348  and  _351
REMARK  143  A    between atoms: _351  and  _352
REMARK  144  A    between atoms: _357  and  _359
REMARK  145  A    between atoms: _359  and  _360
REMARK  146  A    between atoms: _359  and  _362
REMARK  147  A    between atoms: _362  and  _363
REMARK  148  A    between atoms: _366  and  _368
REMARK  149  A    between atoms: _368  and  _369
REMARK  150  A    between atoms: _368  and  _371
REMARK  151  A    between atoms: _374  and  _376
REMARK  152  A    between atoms: _376  and  _377
REMARK  153  A    between atoms: _376  and  _379
REMARK  154  A    between atoms: _379  and  _380
REMARK  155  A    between atoms: _380  and  _381
REMARK  156  A    between atoms: _381  and  _382
REMARK  157  A    between atoms: _382  and  _383
REMARK  158  A    between atoms: _387  and  _389
REMARK  159  A    between atoms: _389  and  _390
REMARK  160  A    between atoms: _389  and  _392
REMARK  161  A    between atoms: _392  and  _393
REMARK  162  A    between atoms: _393  and  _394
REMARK  163  A    between atoms: _396  and  _398
REMARK  164  A    between atoms: _398  and  _399
REMARK  165  A    between atoms: _398  and  _401
REMARK  166  A    between atoms: _401  and  _402
REMARK  167  A    between atoms: _405  and  _407
REMARK  168  A    between atoms: _407  and  _408
REMARK  169  A    between atoms: _410  and  _412
REMARK  170  A    between atoms: _412  and  _413
REMARK  171  A    between atoms: _415  and  _417
REMARK  172  A    between atoms: _417  and  _418
REMARK  173  A    between atoms: _417  and  _420
REMARK  174  A    between atoms: _420  and  _421
REMARK  175  A    between atoms: _424  and  _426
REMARK  176  A    between atoms: _426  and  _427
REMARK  177  A    between atoms: _429  and  _431
REMARK  178  A    between atoms: _431  and  _432
REMARK  179  A    between atoms: _434  and  _436
REMARK  180  A    between atoms: _436  and  _437
REMARK  181  A    between atoms: _436  and  _439
REMARK  182  A    between atoms: _439  and  _440
REMARK  183  A    between atoms: _446  and  _448
REMARK  184  A    between atoms: _448  and  _449
REMARK  185  A    between atoms: _448  and  _451
REMARK  186  A    between atoms: _451  and  _452
REMARK  187  A    between atoms: _455  and  _457
REMARK  188  A    between atoms: _457  and  _458
REMARK  189  A    between atoms: _457  and  _460
REMARK  190  A    between atoms: _463  and  _465
REMARK  191  A    between atoms: _465  and  _466
REMARK  192  A    between atoms: _465  and  _468
REMARK  193  A    between atoms: _468  and  _469
REMARK  194  A    between atoms: _472  and  _474
REMARK  195  A    between atoms: _474  and  _475
REMARK  196  A    between atoms: _474  and  _477
REMARK  197  A    between atoms: _477  and  _478
REMARK  198  A    between atoms: _482  and  _483
REMARK  199  A    between atoms: _488  and  _490
REMARK  200  A    between atoms: _490  and  _491
REMARK  201  A    between atoms: _490  and  _493
REMARK  202  A    between atoms: _496  and  _498
REMARK  203  A    between atoms: _498  and  _499
REMARK  204  A    between atoms: _498  and  _501
REMARK  205  A    between atoms: _501  and  _502
REMARK  206  A    between atoms: _507  and  _509
REMARK  207  A    between atoms: _509  and  _510
REMARK  208  A    between atoms: _509  and  _512
REMARK  209  A    between atoms: _512  and  _513
REMARK  210  A    between atoms: _516  and  _518
REMARK  211  A    between atoms: _518  and  _519
REMARK  212  A    between atoms: _518  and  _521
REMARK  213  A    between atoms: _521  and  _522
REMARK  214  A    between atoms: _525  and  _527
REMARK  215  A    between atoms: _527  and  _528
REMARK  216  A    between atoms: _530  and  _532
REMARK  217  A    between atoms: _532  and  _533
REMARK  218  A    between atoms: _532  and  _535
REMARK  219  A    between atoms: _535  and  _536
REMARK  220  A    between atoms: _536  and  _537
REMARK  221  A    between atoms: _537  and  _538
REMARK  222  A    between atoms: _547  and  _549
REMARK  223  A    between atoms: _549  and  _550
REMARK  224  A    between atoms: _549  and  _552
REMARK  225  A    between atoms: _552  and  _553
REMARK                            x       y       z     vdW  Elec       q    Type
REMARK                         _______ _______ _______ _____ _____    ______ ____
ROOT
ATOM      1  CA  LEU A   1     -14.202  48.897  17.239  0.00  0.00    +0.133 C 
ENDROOT
BRANCH   1   2
ATOM      2  N   LEU A   1     -12.759  48.869  17.462  0.00  0.00    -0.239 NA
ATOM      3  H   LEU A   1     -12.128  49.187  16.699  0.00  0.00    +0.142 HD
ENDBRANCH   1   2
BRANCH   1   4
ATOM      4  C   LEU A   1     -14.703  47.610  16.556  0.00  0.00    +0.224 C 
ATOM      5  O   LEU A   1     -14.078  47.108  15.617  0.00  0.00    -0.287 OA
ENDBRANCH   1   4
BRANCH   1   6
ATOM      6  CB  LEU A   1     -14.598  50.147  16.426  0.00  0.00    +0.025 C 
BRANCH   6   7
ATOM      7  CG  LEU A   1     -13.983  51.514  16.776  0.00  0.00    +0.002 C 
ATOM      8  CD2 LEU A   1     -14.210  51.933  18.233  0.00  0.00    +0.000 C 
ATOM      9  CD1 LEU A   1     -14.524  52.600  15.832  0.00  0.00    +0.000 C 
ENDBRANCH   6   7
ENDBRANCH   1   6
TORSDOF 4
REMARK  Name = ../refined-set-2016/2q63/2q63_pocket.pdb
REMARK  225 active torsions:
REMARK  status: ('A' for Active; 'I' for Inactive)
REMARK    1  A    between atoms: _1  and  _3
REMARK    2  A    between atoms: _3  and  _4
REMARK    3  A    between atoms: _3  and  _6
REMARK    4  A    between atoms: _6  and  _7
REMARK    5  A    between atoms: _7  and  _8
REMARK    6  A    between atoms: _8  and  _9
REMARK    7  A    between atoms: _18  and  _20
REMARK    8  A    between atoms: _20  and  _21
REMARK    9  A    between atoms: _20  and  _23
REMARK   10  A    between atoms: _23  and  _24
REMARK   11  A    between atoms: _27  and  _29
REMARK   12  A    between atoms: _29  and  _30
REMARK   13  A    between atoms: _29  and  _32
REMARK   14  A    between atoms: _32  and  _33
REMARK   15  A    between atoms: _36  and  _38
REMARK   16  A    between atoms: _38  and  _39
REMARK   17  A    between atoms: _38  and  _41
REMARK   18  A    between atoms: _41  and  _42
REMARK   19  A    between atoms: _45  and  _47
REMARK   20  A    between atoms: _47  and  _48
REMARK   21  A    between atoms: _47  and  _50
REMARK   22  A    between atoms: _50  and  _51
REMARK   23  A    between atoms: _54  and  _56
REMARK   24  A    between atoms: _56  and  _57
REMARK   25  A    between atoms: _59  and  _61
REMARK   26  A    between atoms: _61  and  _62
REMARK   27  A    between atoms: _65  and  _67
REMARK   28  A    between atoms: _67  and  _68
REMARK   29  A    between atoms: _67  and  _70
REMARK   30  A    between atoms: _70  and  _71
REMARK   31  A    between atoms: _74  and  _76
REMARK   32  A    between atoms: _76  and  _77
REMARK   33  A    between atoms: _76  and  _79
REMARK   34  A    between atoms: _79  and  _80
REMARK   35  A    between atoms: _85  and  _87
REMARK   36  A    between atoms: _87  and  _88
REMARK   37  A    between atoms: _87  and  _90
REMARK   38  A    between atoms: _90  and  _91
REMARK   39  A    between atoms: _94  and  _96
REMARK   40  A    between atoms: _96  and  _97
REMARK   41  A    between atoms: _96  and  _99
REMARK   42  A    between atoms: _102  and  _104
REMARK   43  A    between atoms: _104  and  _105
REMARK   44  A    between atoms: _104  and  _107
REMARK   45  A    between atoms: _107  and  _108
REMARK   46  A    between atoms: _108  and  _109
REMARK   47  A    between atoms: _109  and  _110
REMARK   48  A    between atoms: _110  and  _111
REMARK   49  A    between atoms: _115  and  _117
REMARK   50  A    between atoms: _117  and  _118
REMARK   51  A    between atoms: _117  and  _120
REMARK   52  A    between atoms: _120  and  _121
REMARK   53  A    between atoms: _124  and  _126
REMARK   54  A    between atoms: _126  and  _127
REMARK   55  A    between atoms: _129  and  _131
REMARK   56  A    between atoms: _131  and  _132
REMARK   57  A    between atoms: _134  and  _136
REMARK   58  A    between atoms: _136  and  _137
REMARK   59  A    between atoms: _136  and  _139
REMARK   60  A    between atoms: _139  and  _140
REMARK   61  A    between atoms: _143  and  _145
REMARK   62  A    between atoms: _145  and  _146
REMARK   63  A    between atoms: _148  and  _150
REMARK   64  A    between atoms: _150  and  _151
REMARK   65  A    between atoms: _153  and  _155
REMARK   66  A    between atoms: _155  and  _156
REMARK   67  A    between atoms: _155  and  _158
REMARK   68  A    between atoms: _158  and  _159
REMARK   69  A    between atoms: _162  and  _164
REMARK   70  A    between atoms: _164  and  _165
REMARK   71  A    between atoms: _164  and  _167
REMARK   72  A    between atoms: _167  and  _168
REMARK   73  A    between atoms: _172  and  _173
REMARK   74  A    between atoms: _178  and  _180
REMARK   75  A    between atoms: _180  and  _181
REMARK   76  A    between atoms: _180  and  _183
REMARK   77  A    between atoms: _183  and  _184
REMARK   78  A    between atoms: _188  and  _189
REMARK   79  A    between atoms: _194  and  _196
REMARK   80  A    between atoms: _196  and  _197
REMARK   81  A    between atoms: _196  and  _199
REMARK   82  A    between atoms: _202  and  _204
REMARK   83  A    between atoms: _204  and  _205
REMARK   84  A    between atoms: _204  and  _207
REMARK   85  A    between atoms: _207  and  _208
REMARK   86  A    between atoms: _213  and  _215
REMARK   87  A    between atoms: _215  and  _216
REMARK   88  A    between atoms: _215  and  _218
REMARK   89  A    between atoms: _218  and  _219
REMARK   90  A    between atoms: _222  and  _224
REMARK   91  A    between atoms: _224  and  _225
REMARK   92  A    between atoms: _224  and  _227
REMARK   93  A    between atoms: _227  and  _228
REMARK   94  A    between atoms: _231  and  _233
REMARK   95  A    between atoms: _233  and  _234
REMARK   96  A    between atoms: _236  and  _238
REMARK   97  A    between atoms: _238  and  _239
REMARK   98  A    between atoms: _238  and  _241
REMARK   99  A    between atoms: _241  and  _242
REMARK  100  A    between atoms: _242  and  _243
REMARK  101  A    between atoms: _243  and  _244
REMARK  102  A    between atoms: _253  and  _255
REMARK  103  A    between atoms: _255  and  _256
REMARK  104  A    between atoms: _255  and  _258
REMARK  105  A    between atoms: _258  and  _259
REMARK  106  A    between atoms: _264  and  _266
REMARK  107  A    between atoms: _266  and  _267
REMARK  108  A    between atoms: _266  and  _269
REMARK  109  A    between atoms: _269  and  _270
REMARK  110  A    between atoms: _270  and  _271
REMARK  111  A    between atoms: _271  and  _272
REMARK  112  A    between atoms: _281  and  _283
REMARK  113  A    between atoms: _283  and  _284
REMARK  114  A    between atoms: _283  and  _286
REMARK  115  A    between atoms: _286  and  _287
REMARK  116  A    between atoms: _290  and  _292
REMARK  117  A    between atoms: _292  and  _293
REMARK  118  A    between atoms: _292  and  _295
REMARK  119  A    between atoms: _295  and  _296
REMARK  120  A    between atoms: _299  and  _301
REMARK  121  A    between atoms: _301  and  _302
REMARK  122  A    between atoms: _301  and  _304
REMARK  123  A    between atoms: _304  and  _305
REMARK  124  A    between atoms: _308  and  _310
REMARK  125  A    between atoms: _310  and  _311
REMARK  126  A    between atoms: _310  and  _313
REMARK  127  A    between atoms: _313  and  _314
REMARK  128  A    between atoms: _317  and  _319
REMARK  129  A    between atoms: _319  and  _320
REMARK  130  A    between atoms: _319  and  _322
REMARK  131  A    between atoms: _322  and  _323
REMARK  132  A    between atoms: _326  and  _328
REMARK  133  A    between atoms: _328  and  _329
REMARK  134  A    between atoms: _331  and  _333
REMARK  135  A    between atoms: _333  and  _334
REMARK  136  A    between atoms: _337  and  _339
REMARK  137  A    between atoms: _339  and  _340
REMARK  138  A    between atoms: _339  and  _342
REMARK  139  A    between atoms: _342  and  _343
REMARK  140  A    between atoms: _346  and  _348
REMARK  141  A    between atoms: _348  and  _349
REMARK  142  A    between atoms: _348  and  _351
REMARK  143  A    between atoms: _351  and  _352
REMARK  144  A    between atoms: _357  and  _359
REMARK  145  A    between atoms: _359  and  _360
REMARK  146  A    between atoms: _359  and  _362
REMARK  147  A    between atoms: _362  and  _363
REMARK  148  A    between atoms: _366  and  _368
REMARK  149  A    between atoms: _368  and  _369
REMARK  150  A    between atoms: _368  and  _371
REMARK  151  A    between atoms: _374  and  _376
REMARK  152  A    between atoms: _376  and  _377
REMARK  153  A    between atoms: _376  and  _379
REMARK  154  A    between atoms: _379  and  _380
REMARK  155  A    between atoms: _380  and  _381
REMARK  156  A    between atoms: _381  and  _382
REMARK  157  A    between atoms: _382  and  _383
REMARK  158  A    between atoms: _387  and  _389
REMARK  159  A    between atoms: _389  and  _390
REMARK  160  A    between atoms: _389  and  _392
REMARK  161  A    between atoms: _392  and  _393
REMARK  162  A    between atoms: _393  and  _394
REMARK  163  A    between atoms: _396  and  _398
REMARK  164  A    between atoms: _398  and  _399
REMARK  165  A    between atoms: _398  and  _401
REMARK  166  A    between atoms: _401  and  _402
REMARK  167  A    between atoms: _405  and  _407
REMARK  168  A    between atoms: _407  and  _408
REMARK  169  A    between atoms: _410  and  _412
REMARK  170  A    between atoms: _412  and  _413
REMARK  171  A    between atoms: _415  and  _417
REMARK  172  A    between atoms: _417  and  _418
REMARK  173  A    between atoms: _417  and  _420
REMARK  174  A    between atoms: _420  and  _421
REMARK  175  A    between atoms: _424  and  _426
REMARK  176  A    between atoms: _426  and  _427
REMARK  177  A    between atoms: _429  and  _431
REMARK  178  A    between atoms: _431  and  _432
REMARK  179  A    between atoms: _434  and  _436
REMARK  180  A    between atoms: _436  and  _437
REMARK  181  A    between atoms: _436  and  _439
REMARK  182  A    between atoms: _439  and  _440
REMARK  183  A    between atoms: _446  and  _448
REMARK  184  A    between atoms: _448  and  _449
REMARK  185  A    between atoms: _448  and  _451
REMARK  186  A    between atoms: _451  and  _452
REMARK  187  A    between atoms: _455  and  _457
REMARK  188  A    between atoms: _457  and  _458
REMARK  189  A    between atoms: _457  and  _460
REMARK  190  A    between atoms: _463  and  _465
REMARK  191  A    between atoms: _465  and  _466
REMARK  192  A    between atoms: _465  and  _468
REMARK  193  A    between atoms: _468  and  _469
REMARK  194  A    between atoms: _472  and  _474
REMARK  195  A    between atoms: _474  and  _475
REMARK  196  A    between atoms: _474  and  _477
REMARK  197  A    between atoms: _477  and  _478
REMARK  198  A    between atoms: _482  and  _483
REMARK  199  A    between atoms: _488  and  _490
REMARK  200  A    between atoms: _490  and  _491
REMARK  201  A    between atoms: _490  and  _493
REMARK  202  A    between atoms: _496  and  _498
REMARK  203  A    between atoms: _498  and  _499
REMARK  204  A    between atoms: _498  and  _501
REMARK  205  A    between atoms: _501  and  _502
REMARK  206  A    between atoms: _507  and  _509
REMARK  207  A    between atoms: _509  and  _510
REMARK  208  A    between atoms: _509  and  _512
REMARK  209  A    between atoms: _512  and  _513
REMARK  210  A    between atoms: _516  and  _518
REMARK  211  A    between atoms: _518  and  _519
REMARK  212  A    between atoms: _518  and  _521
REMARK  213  A    between atoms: _521  and  _522
REMARK  214  A    between atoms: _525  and  _527
REMARK  215  A    between atoms: _527  and  _528
REMARK  216  A    between atoms: _530  and  _532
REMARK  217  A    between atoms: _532  and  _533
REMARK  218  A    between atoms: _532  and  _535
REMARK  219  A    between atoms: _535  and  _536
REMARK  220  A    between atoms: _536  and  _537
REMARK  221  A    between atoms: _537  and  _538
REMARK  222  A    between atoms: _547  and  _549
REMARK  223  A    between atoms: _549  and  _550
REMARK  224  A    between atoms: _549  and  _552
REMARK  225  A    between atoms: _552  and  _553
REMARK                            x       y       z     vdW  Elec       q    Type
REMARK                         _______ _______ _______ _____ _____    ______ ____
ROOT
ATOM      1  C   ILE A   5      -8.613  47.983  10.264  0.00  0.00    +0.241 C 
ATOM      2  O   ILE A   5      -9.078  48.170  11.394  0.00  0.00    -0.273 OA
ATOM      3  N   ILE A   6      -7.311  48.067   9.997  0.00  0.00    -0.297 N 
ATOM      4  H   ILE A   6      -6.963  47.756   9.068  0.00  0.00    +0.150 HD
ENDROOT
BRANCH   1   5
ATOM      5  CA  ILE A   5      -9.538  47.667   9.107  0.00  0.00    +0.149 C 
BRANCH   5   7
ATOM      6  C   ASN A   4     -10.203  45.347   8.573  0.00  0.00    +0.241 C 
ATOM      7  N   ILE A   5     -10.292  46.428   9.345  0.00  0.00    -0.297 N 
ATOM      8  H   ILE A   5     -10.932  46.394  10.164  0.00  0.00    +0.150 HD
ATOM      9  O   ASN A   4      -9.435  45.259   7.607  0.00  0.00    -0.273 OA
BRANCH   6  10
ATOM     10  CA  ASN A   4     -11.135  44.186   8.925  0.00  0.00    +0.158 C 
BRANCH  10  13
ATOM     11  C   VAL A   3     -12.751  44.612   7.173  0.00  0.00    +0.241 C 
ATOM     12  O   VAL A   3     -13.136  45.641   7.730  0.00  0.00    -0.273 OA
ATOM     13  N   ASN A   4     -11.865  43.785   7.726  0.00  0.00    -0.297 N 
ATOM     14  H   ASN A   4     -11.693  42.851   7.302  0.00  0.00    +0.150 HD
BRANCH  11  15
ATOM     15  CA  VAL A   3     -13.312  44.223   5.805  0.00  0.00    +0.149 C 
BRANCH  15  17
ATOM     16  C   PRO A   2     -15.606  43.674   5.309  0.00  0.00    +0.241 C 
ATOM     17  N   VAL A   3     -14.719  44.492   5.851  0.00  0.00    -0.297 N 
ATOM     18  H   VAL A   3     -15.052  45.356   6.325  0.00  0.00    +0.150 HD
ATOM     19  O   PRO A   2     -15.284  42.619   4.785  0.00  0.00    -0.273 OA
BRANCH  16  26
ATOM     20  C   THR A   1     -17.402  45.067   7.584  0.00  0.00    +0.244 C 
ATOM     21  O   THR A   1     -17.309  43.956   8.097  0.00  0.00    -0.273 OA
ATOM     22  N   PRO A   2     -17.323  45.253   6.249  0.00  0.00    -0.272 N 
ATOM     23  CD  PRO A   2     -17.482  46.508   5.488  0.00  0.00    +0.094 C 
ATOM     24  CG  PRO A   2     -17.257  46.080   4.059  0.00  0.00    +0.024 C 
ATOM     25  CB  PRO A   2     -17.534  44.618   4.004  0.00  0.00    +0.031 C 
ATOM     26  CA  PRO A   2     -17.080  44.104   5.366  0.00  0.00    +0.152 C 
BRANCH  20  27
ATOM     27  CA  THR A   1     -17.633  46.303   8.472  0.00  0.00    +0.172 C 
BRANCH  27  28
ATOM     28  N   THR A   1     -18.520  45.903   9.536  0.00  0.00    -0.236 NA
ATOM     29  H   THR A   1     -18.111  45.567  10.431  0.00  0.00    +0.142 HD
ENDBRANCH  27  28
BRANCH  27  30
ATOM     30  CB  THR A   1     -16.301  46.807   9.053  0.00  0.00    +0.135 C 
ATOM     31  CG2 THR A   1     -15.620  45.689   9.867  0.00  0.00    +0.034 C 
BRANCH  30  32
ATOM     32  OG1 THR A   1     -15.444  47.235   7.986  0.00  0.00    -0.383 OA
ATOM     33  HG1 THR A   1     -15.272  46.474   7.377  0.00  0.00    +0.210 HD
ENDBRANCH  30  32
ENDBRANCH  27  30
ENDBRANCH  20  27
ENDBRANCH  16  26
ENDBRANCH  15  17
BRANCH  15  34
ATOM     34  CB  VAL A   3     -12.653  45.025   4.641  0.00  0.00    +0.027 C 
ATOM     35  CG2 VAL A   3     -11.162  45.099   4.768  0.00  0.00    +0.002 C 
ATOM     36  CG1 VAL A   3     -13.022  44.429   3.293  0.00  0.00    +0.002 C 
ENDBRANCH  15  34
ENDBRANCH  11  15
ENDBRANCH  10  13
BRANCH  10  37
ATOM     37  CB  ASN A   4     -10.342  43.018   9.524  0.00  0.00    +0.114 C 
BRANCH  37  38
ATOM     38  CG  ASN A   4     -11.231  41.875  10.008  0.00  0.00    +0.222 C 
ATOM     39  OD1 ASN A   4     -12.216  42.077  10.722  0.00  0.00    -0.275 OA
ATOM     40  ND2 ASN A   4     -10.869  40.662   9.632  0.00  0.00    -0.329 N 
ATOM     41 HD21 ASN A   4     -11.421  39.836   9.939  0.00  0.00    +0.145 HD
ATOM     42 HD22 ASN A   4     -10.031  40.533   9.029  0.00  0.00    +0.145 HD
ENDBRANCH  37  38
ENDBRANCH  10  37
ENDBRANCH   6  10
ENDBRANCH   5   7
BRANCH   5  43
ATOM     43  CB  ILE A   5     -10.495  48.876   9.002  0.00  0.00    +0.027 C 
ATOM     44  CG2 ILE A   5      -9.722  50.180   8.780  0.00  0.00    +0.002 C 
BRANCH  43  45
ATOM     45  CG1 ILE A   5     -11.540  48.651   7.917  0.00  0.00    +0.002 C 
ATOM     46  CD1 ILE A   5     -11.089  49.076   6.595  0.00  0.00    +0.000 C 
ENDBRANCH  43  45
ENDBRANCH   5  43
ENDBRANCH   1   5
BRANCH   3  47
ATOM     47  CA  ILE A   6      -6.349  48.591  10.987  0.00  0.00    +0.149 C 
BRANCH  47  48
ATOM     48  C   ILE A   6      -6.119  50.070  10.703  0.00  0.00    +0.241 C 
ATOM     49  N   GLY A   7      -6.535  50.936  11.613  0.00  0.00    -0.295 N 
ATOM     50  H   GLY A   7      -6.908  50.586  12.519  0.00  0.00    +0.150 HD
ATOM     51  O   ILE A   6      -5.556  50.424   9.673  0.00  0.00    -0.273 OA
BRANCH  49  52
ATOM     52  CA  GLY A   7      -6.480  52.368  11.369  0.00  0.00    +0.176 C 
BRANCH  52  53
ATOM     53  C   GLY A   7      -5.243  52.976  11.976  0.00  0.00    +0.243 C 
ATOM     54  O   GLY A   7      -4.344  52.250  12.466  0.00  0.00    -0.273 OA
ATOM     55  N   ARG A   8      -5.183  54.308  11.936  0.00  0.00    -0.297 N 
ATOM     56  H   ARG A   8      -6.020  54.837  11.618  0.00  0.00    +0.150 HD
BRANCH  55  57
ATOM     57  CA  ARG A   8      -3.976  55.057  12.326  0.00  0.00    +0.149 C 
BRANCH  57  58
ATOM     58  C   ARG A   8      -3.642  54.906  13.808  0.00  0.00    +0.241 C 
ATOM     59  N   ASN A   9      -4.676  54.756  14.640  0.00  0.00    -0.298 N 
ATOM     60  H   ASN A   9      -5.639  54.754  14.248  0.00  0.00    +0.150 HD
ATOM     61  O   ARG A   8      -2.460  54.903  14.177  0.00  0.00    -0.273 OA
BRANCH  59  62
ATOM     62  CA  ASN A   9      -4.502  54.595  16.076  0.00  0.00    +0.146 C 
BRANCH  62  63
ATOM     63  C   ASN A   9      -3.588  53.418  16.440  0.00  0.00    +0.227 C 
ATOM     64  O   ASN A   9      -2.785  53.515  17.388  0.00  0.00    -0.286 OA
ENDBRANCH  62  63
BRANCH  62  65
ATOM     65  CB  ASN A   9      -5.853  54.476  16.787  0.00  0.00    +0.112 C 
BRANCH  65  66
ATOM     66  CG  ASN A   9      -6.520  53.127  16.573  0.00  0.00    +0.222 C 
ATOM     67  ND2 ASN A   9      -6.742  52.372  17.659  0.00  0.00    -0.329 N 
ATOM     68 HD21 ASN A   9      -6.445  52.710  18.597  0.00  0.00    +0.145 HD
ATOM     69 HD22 ASN A   9      -7.211  51.449  17.563  0.00  0.00    +0.145 HD
ATOM     70  OD1 ASN A   9      -6.848  52.779  15.452  0.00  0.00    -0.275 OA
ENDBRANCH  65  66
ENDBRANCH  62  65
ENDBRANCH  59  62
ENDBRANCH  57  58
BRANCH  57  71
ATOM     71  CB  ARG A   8      -4.106  56.533  11.968  0.00  0.00    +0.033 C 
BRANCH  71  72
ATOM     72  CG  ARG A   8      -3.994  56.834  10.467  0.00  0.00    +0.045 C 
BRANCH  72  73
ATOM     73  CD  ARG A   8      -4.074  58.334  10.201  0.00  0.00    +0.174 C 
BRANCH  73  74
ATOM     74  NE  ARG A   8      -5.276  58.970  10.784  0.00  0.00    -0.265 N 
ATOM     75  CZ  ARG A   8      -5.295  59.676  11.923  0.00  0.00    +0.342 C 
ATOM     76  NH2 ARG A   8      -4.189  59.854  12.648  0.00  0.00    -0.292 N 
ATOM     77 HH21 ARG A   8      -4.228  60.406  13.529  0.00  0.00    +0.255 HD
ATOM     78 HH22 ARG A   8      -3.288  59.441  12.332  0.00  0.00    +0.255 HD
ATOM     79  NH1 ARG A   8      -6.429  60.229  12.340  0.00  0.00    -0.292 N 
ATOM     80 HH11 ARG A   8      -6.446  60.777  13.224  0.00  0.00    +0.255 HD
ATOM     81 HH12 ARG A   8      -7.300  60.114  11.783  0.00  0.00    +0.255 HD
ATOM     82  HE  ARG A   8      -6.174  58.861  10.271  0.00  0.00    +0.259 HD
ENDBRANCH  73  74
ENDBRANCH  72  73
ENDBRANCH  71  72
ENDBRANCH  57  71
ENDBRANCH  55  57
ENDBRANCH  52  53
ENDBRANCH  49  52
ENDBRANCH  47  48
BRANCH  47  83
ATOM     83  CB  ILE A   6      -4.980  47.852  10.931  0.00  0.00    +0.027 C 
ATOM     84  CG2 ILE A   6      -3.952  48.459  11.961  0.00  0.00    +0.002 C 
BRANCH  83  85
ATOM     85  CG1 ILE A   6      -5.146  46.334  11.081  0.00  0.00    +0.002 C 
ATOM     86  CD1 ILE A   6      -6.020  45.869  12.260  0.00  0.00    +0.000 C 
ENDBRANCH  83  85
ENDBRANCH  47  83
ENDBRANCH   3  47
TORSDOF 32
REMARK  Name = ../refined-set-2016/2q63/2q63_pocket.pdb
REMARK  225 active torsions:
REMARK  status: ('A' for Active; 'I' for Inactive)
REMARK    1  A    between atoms: _1  and  _3
REMARK    2  A    between atoms: _3  and  _4
REMARK    3  A    between atoms: _3  and  _6
REMARK    4  A    between atoms: _6  and  _7
REMARK    5  A    between atoms: _7  and  _8
REMARK    6  A    between atoms: _8  and  _9
REMARK    7  A    between atoms: _18  and  _20
REMARK    8  A    between atoms: _20  and  _21
REMARK    9  A    between atoms: _20  and  _23
REMARK   10  A    between atoms: _23  and  _24
REMARK   11  A    between atoms: _27  and  _29
REMARK   12  A    between atoms: _29  and  _30
REMARK   13  A    between atoms: _29  and  _32
REMARK   14  A    between atoms: _32  and  _33
REMARK   15  A    between atoms: _36  and  _38
REMARK   16  A    between atoms: _38  and  _39
REMARK   17  A    between atoms: _38  and  _41
REMARK   18  A    between atoms: _41  and  _42
REMARK   19  A    between atoms: _45  and  _47
REMARK   20  A    between atoms: _47  and  _48
REMARK   21  A    between atoms: _47  and  _50
REMARK   22  A    between atoms: _50  and  _51
REMARK   23  A    between atoms: _54  and  _56
REMARK   24  A    between atoms: _56  and  _57
REMARK   25  A    between atoms: _59  and  _61
REMARK   26  A    between atoms: _61  and  _62
REMARK   27  A    between atoms: _65  and  _67
REMARK   28  A    between atoms: _67  and  _68
REMARK   29  A    between atoms: _67  and  _70
REMARK   30  A    between atoms: _70  and  _71
REMARK   31  A    between atoms: _74  and  _76
REMARK   32  A    between atoms: _76  and  _77
REMARK   33  A    between atoms: _76  and  _79
REMARK   34  A    between atoms: _79  and  _80
REMARK   35  A    between atoms: _85  and  _87
REMARK   36  A    between atoms: _87  and  _88
REMARK   37  A    between atoms: _87  and  _90
REMARK   38  A    between atoms: _90  and  _91
REMARK   39  A    between atoms: _94  and  _96
REMARK   40  A    between atoms: _96  and  _97
REMARK   41  A    between atoms: _96  and  _99
REMARK   42  A    between atoms: _102  and  _104
REMARK   43  A    between atoms: _104  and  _105
REMARK   44  A    between atoms: _104  and  _107
REMARK   45  A    between atoms: _107  and  _108
REMARK   46  A    between atoms: _108  and  _109
REMARK   47  A    between atoms: _109  and  _110
REMARK   48  A    between atoms: _110  and  _111
REMARK   49  A    between atoms: _115  and  _117
REMARK   50  A    between atoms: _117  and  _118
REMARK   51  A    between atoms: _117  and  _120
REMARK   52  A    between atoms: _120  and  _121
REMARK   53  A    between atoms: _124  and  _126
REMARK   54  A    between atoms: _126  and  _127
REMARK   55  A    between atoms: _129  and  _131
REMARK   56  A    between atoms: _131  and  _132
REMARK   57  A    between atoms: _134  and  _136
REMARK   58  A    between atoms: _136  and  _137
REMARK   59  A    between atoms: _136  and  _139
REMARK   60  A    between atoms: _139  and  _140
REMARK   61  A    between atoms: _143  and  _145
REMARK   62  A    between atoms: _145  and  _146
REMARK   63  A    between atoms: _148  and  _150
REMARK   64  A    between atoms: _150  and  _151
REMARK   65  A    between atoms: _153  and  _155
REMARK   66  A    between atoms: _155  and  _156
REMARK   67  A    between atoms: _155  and  _158
REMARK   68  A    between atoms: _158  and  _159
REMARK   69  A    between atoms: _162  and  _164
REMARK   70  A    between atoms: _164  and  _165
REMARK   71  A    between atoms: _164  and  _167
REMARK   72  A    between atoms: _167  and  _168
REMARK   73  A    between atoms: _172  and  _173
REMARK   74  A    between atoms: _178  and  _180
REMARK   75  A    between atoms: _180  and  _181
REMARK   76  A    between atoms: _180  and  _183
REMARK   77  A    between atoms: _183  and  _184
REMARK   78  A    between atoms: _188  and  _189
REMARK   79  A    between atoms: _194  and  _196
REMARK   80  A    between atoms: _196  and  _197
REMARK   81  A    between atoms: _196  and  _199
REMARK   82  A    between atoms: _202  and  _204
REMARK   83  A    between atoms: _204  and  _205
REMARK   84  A    between atoms: _204  and  _207
REMARK   85  A    between atoms: _207  and  _208
REMARK   86  A    between atoms: _213  and  _215
REMARK   87  A    between atoms: _215  and  _216
REMARK   88  A    between atoms: _215  and  _218
REMARK   89  A    between atoms: _218  and  _219
REMARK   90  A    between atoms: _222  and  _224
REMARK   91  A    between atoms: _224  and  _225
REMARK   92  A    between atoms: _224  and  _227
REMARK   93  A    between atoms: _227  and  _228
REMARK   94  A    between atoms: _231  and  _233
REMARK   95  A    between atoms: _233  and  _234
REMARK   96  A    between atoms: _236  and  _238
REMARK   97  A    between atoms: _238  and  _239
REMARK   98  A    between atoms: _238  and  _241
REMARK   99  A    between atoms: _241  and  _242
REMARK  100  A    between atoms: _242  and  _243
REMARK  101  A    between atoms: _243  and  _244
REMARK  102  A    between atoms: _253  and  _255
REMARK  103  A    between atoms: _255  and  _256
REMARK  104  A    between atoms: _255  and  _258
REMARK  105  A    between atoms: _258  and  _259
REMARK  106  A    between atoms: _264  and  _266
REMARK  107  A    between atoms: _266  and  _267
REMARK  108  A    between atoms: _266  and  _269
REMARK  109  A    between atoms: _269  and  _270
REMARK  110  A    between atoms: _270  and  _271
REMARK  111  A    between atoms: _271  and  _272
REMARK  112  A    between atoms: _281  and  _283
REMARK  113  A    between atoms: _283  and  _284
REMARK  114  A    between atoms: _283  and  _286
REMARK  115  A    between atoms: _286  and  _287
REMARK  116  A    between atoms: _290  and  _292
REMARK  117  A    between atoms: _292  and  _293
REMARK  118  A    between atoms: _292  and  _295
REMARK  119  A    between atoms: _295  and  _296
REMARK  120  A    between atoms: _299  and  _301
REMARK  121  A    between atoms: _301  and  _302
REMARK  122  A    between atoms: _301  and  _304
REMARK  123  A    between atoms: _304  and  _305
REMARK  124  A    between atoms: _308  and  _310
REMARK  125  A    between atoms: _310  and  _311
REMARK  126  A    between atoms: _310  and  _313
REMARK  127  A    between atoms: _313  and  _314
REMARK  128  A    between atoms: _317  and  _319
REMARK  129  A    between atoms: _319  and  _320
REMARK  130  A    between atoms: _319  and  _322
REMARK  131  A    between atoms: _322  and  _323
REMARK  132  A    between atoms: _326  and  _328
REMARK  133  A    between atoms: _328  and  _329
REMARK  134  A    between atoms: _331  and  _333
REMARK  135  A    between atoms: _333  and  _334
REMARK  136  A    between atoms: _337  and  _339
REMARK  137  A    between atoms: _339  and  _340
REMARK  138  A    between atoms: _339  and  _342
REMARK  139  A    between atoms: _342  and  _343
REMARK  140  A    between atoms: _346  and  _348
REMARK  141  A    between atoms: _348  and  _349
REMARK  142  A    between atoms: _348  and  _351
REMARK  143  A    between atoms: _351  and  _352
REMARK  144  A    between atoms: _357  and  _359
REMARK  145  A    between atoms: _359  and  _360
REMARK  146  A    between atoms: _359  and  _362
REMARK  147  A    between atoms: _362  and  _363
REMARK  148  A    between atoms: _366  and  _368
REMARK  149  A    between atoms: _368  and  _369
REMARK  150  A    between atoms: _368  and  _371
REMARK  151  A    between atoms: _374  and  _376
REMARK  152  A    between atoms: _376  and  _377
REMARK  153  A    between atoms: _376  and  _379
REMARK  154  A    between atoms: _379  and  _380
REMARK  155  A    between atoms: _380  and  _381
REMARK  156  A    between atoms: _381  and  _382
REMARK  157  A    between atoms: _382  and  _383
REMARK  158  A    between atoms: _387  and  _389
REMARK  159  A    between atoms: _389  and  _390
REMARK  160  A    between atoms: _389  and  _392
REMARK  161  A    between atoms: _392  and  _393
REMARK  162  A    between atoms: _393  and  _394
REMARK  163  A    between atoms: _396  and  _398
REMARK  164  A    between atoms: _398  and  _399
REMARK  165  A    between atoms: _398  and  _401
REMARK  166  A    between atoms: _401  and  _402
REMARK  167  A    between atoms: _405  and  _407
REMARK  168  A    between atoms: _407  and  _408
REMARK  169  A    between atoms: _410  and  _412
REMARK  170  A    between atoms: _412  and  _413
REMARK  171  A    between atoms: _415  and  _417
REMARK  172  A    between atoms: _417  and  _418
REMARK  173  A    between atoms: _417  and  _420
REMARK  174  A    between atoms: _420  and  _421
REMARK  175  A    between atoms: _424  and  _426
REMARK  176  A    between atoms: _426  and  _427
REMARK  177  A    between atoms: _429  and  _431
REMARK  178  A    between atoms: _431  and  _432
REMARK  179  A    between atoms: _434  and  _436
REMARK  180  A    between atoms: _436  and  _437
REMARK  181  A    between atoms: _436  and  _439
REMARK  182  A    between atoms: _439  and  _440
REMARK  183  A    between atoms: _446  and  _448
REMARK  184  A    between atoms: _448  and  _449
REMARK  185  A    between atoms: _448  and  _451
REMARK  186  A    between atoms: _451  and  _452
REMARK  187  A    between atoms: _455  and  _457
REMARK  188  A    between atoms: _457  and  _458
REMARK  189  A    between atoms: _457  and  _460
REMARK  190  A    between atoms: _463  and  _465
REMARK  191  A    between atoms: _465  and  _466
REMARK  192  A    between atoms: _465  and  _468
REMARK  193  A    between atoms: _468  and  _469
REMARK  194  A    between atoms: _472  and  _474
REMARK  195  A    between atoms: _474  and  _475
REMARK  196  A    between atoms: _474  and  _477
REMARK  197  A    between atoms: _477  and  _478
REMARK  198  A    between atoms: _482  and  _483
REMARK  199  A    between atoms: _488  and  _490
REMARK  200  A    between atoms: _490  and  _491
REMARK  201  A    between atoms: _490  and  _493
REMARK  202  A    between atoms: _496  and  _498
REMARK  203  A    between atoms: _498  and  _499
REMARK  204  A    between atoms: _498  and  _501
REMARK  205  A    between atoms: _501  and  _502
REMARK  206  A    between atoms: _507  and  _509
REMARK  207  A    between atoms: _509  and  _510
REMARK  208  A    between atoms: _509  and  _512
REMARK  209  A    between atoms: _512  and  _513
REMARK  210  A    between atoms: _516  and  _518
REMARK  211  A    between atoms: _518  and  _519
REMARK  212  A    between atoms: _518  and  _521
REMARK  213  A    between atoms: _521  and  _522
REMARK  214  A    between atoms: _525  and  _527
REMARK  215  A    between atoms: _527  and  _528
REMARK  216  A    between atoms: _530  and  _532
REMARK  217  A    between atoms: _532  and  _533
REMARK  218  A    between atoms: _532  and  _535
REMARK  219  A    between atoms: _535  and  _536
REMARK  220  A    between atoms: _536  and  _537
REMARK  221  A    between atoms: _537  and  _538
REMARK  222  A    between atoms: _547  and  _549
REMARK  223  A    between atoms: _549  and  _550
REMARK  224  A    between atoms: _549  and  _552
REMARK  225  A    between atoms: _552  and  _553
REMARK                            x       y       z     vdW  Elec       q    Type
REMARK                         _______ _______ _______ _____ _____    ______ ____
ROOT
ATOM      1  O   HOH     1      -6.751  49.233  -0.503  0.00  0.00    +0.000 OA
ENDROOT
TORSDOF 0
REMARK  Name = ../refined-set-2016/2q63/2q63_pocket.pdb
REMARK  225 active torsions:
REMARK  status: ('A' for Active; 'I' for Inactive)
REMARK    1  A    between atoms: _1  and  _3
REMARK    2  A    between atoms: _3  and  _4
REMARK    3  A    between atoms: _3  and  _6
REMARK    4  A    between atoms: _6  and  _7
REMARK    5  A    between atoms: _7  and  _8
REMARK    6  A    between atoms: _8  and  _9
REMARK    7  A    between atoms: _18  and  _20
REMARK    8  A    between atoms: _20  and  _21
REMARK    9  A    between atoms: _20  and  _23
REMARK   10  A    between atoms: _23  and  _24
REMARK   11  A    between atoms: _27  and  _29
REMARK   12  A    between atoms: _29  and  _30
REMARK   13  A    between atoms: _29  and  _32
REMARK   14  A    between atoms: _32  and  _33
REMARK   15  A    between atoms: _36  and  _38
REMARK   16  A    between atoms: _38  and  _39
REMARK   17  A    between atoms: _38  and  _41
REMARK   18  A    between atoms: _41  and  _42
REMARK   19  A    between atoms: _45  and  _47
REMARK   20  A    between atoms: _47  and  _48
REMARK   21  A    between atoms: _47  and  _50
REMARK   22  A    between atoms: _50  and  _51
REMARK   23  A    between atoms: _54  and  _56
REMARK   24  A    between atoms: _56  and  _57
REMARK   25  A    between atoms: _59  and  _61
REMARK   26  A    between atoms: _61  and  _62
REMARK   27  A    between atoms: _65  and  _67
REMARK   28  A    between atoms: _67  and  _68
REMARK   29  A    between atoms: _67  and  _70
REMARK   30  A    between atoms: _70  and  _71
REMARK   31  A    between atoms: _74  and  _76
REMARK   32  A    between atoms: _76  and  _77
REMARK   33  A    between atoms: _76  and  _79
REMARK   34  A    between atoms: _79  and  _80
REMARK   35  A    between atoms: _85  and  _87
REMARK   36  A    between atoms: _87  and  _88
REMARK   37  A    between atoms: _87  and  _90
REMARK   38  A    between atoms: _90  and  _91
REMARK   39  A    between atoms: _94  and  _96
REMARK   40  A    between atoms: _96  and  _97
REMARK   41  A    between atoms: _96  and  _99
REMARK   42  A    between atoms: _102  and  _104
REMARK   43  A    between atoms: _104  and  _105
REMARK   44  A    between atoms: _104  and  _107
REMARK   45  A    between atoms: _107  and  _108
REMARK   46  A    between atoms: _108  and  _109
REMARK   47  A    between atoms: _109  and  _110
REMARK   48  A    between atoms: _110  and  _111
REMARK   49  A    between atoms: _115  and  _117
REMARK   50  A    between atoms: _117  and  _118
REMARK   51  A    between atoms: _117  and  _120
REMARK   52  A    between atoms: _120  and  _121
REMARK   53  A    between atoms: _124  and  _126
REMARK   54  A    between atoms: _126  and  _127
REMARK   55  A    between atoms: _129  and  _131
REMARK   56  A    between atoms: _131  and  _132
REMARK   57  A    between atoms: _134  and  _136
REMARK   58  A    between atoms: _136  and  _137
REMARK   59  A    between atoms: _136  and  _139
REMARK   60  A    between atoms: _139  and  _140
REMARK   61  A    between atoms: _143  and  _145
REMARK   62  A    between atoms: _145  and  _146
REMARK   63  A    between atoms: _148  and  _150
REMARK   64  A    between atoms: _150  and  _151
REMARK   65  A    between atoms: _153  and  _155
REMARK   66  A    between atoms: _155  and  _156
REMARK   67  A    between atoms: _155  and  _158
REMARK   68  A    between atoms: _158  and  _159
REMARK   69  A    between atoms: _162  and  _164
REMARK   70  A    between atoms: _164  and  _165
REMARK   71  A    between atoms: _164  and  _167
REMARK   72  A    between atoms: _167  and  _168
REMARK   73  A    between atoms: _172  and  _173
REMARK   74  A    between atoms: _178  and  _180
REMARK   75  A    between atoms: _180  and  _181
REMARK   76  A    between atoms: _180  and  _183
REMARK   77  A    between atoms: _183  and  _184
REMARK   78  A    between atoms: _188  and  _189
REMARK   79  A    between atoms: _194  and  _196
REMARK   80  A    between atoms: _196  and  _197
REMARK   81  A    between atoms: _196  and  _199
REMARK   82  A    between atoms: _202  and  _204
REMARK   83  A    between atoms: _204  and  _205
REMARK   84  A    between atoms: _204  and  _207
REMARK   85  A    between atoms: _207  and  _208
REMARK   86  A    between atoms: _213  and  _215
REMARK   87  A    between atoms: _215  and  _216
REMARK   88  A    between atoms: _215  and  _218
REMARK   89  A    between atoms: _218  and  _219
REMARK   90  A    between atoms: _222  and  _224
REMARK   91  A    between atoms: _224  and  _225
REMARK   92  A    between atoms: _224  and  _227
REMARK   93  A    between atoms: _227  and  _228
REMARK   94  A    between atoms: _231  and  _233
REMARK   95  A    between atoms: _233  and  _234
REMARK   96  A    between atoms: _236  and  _238
REMARK   97  A    between atoms: _238  and  _239
REMARK   98  A    between atoms: _238  and  _241
REMARK   99  A    between atoms: _241  and  _242
REMARK  100  A    between atoms: _242  and  _243
REMARK  101  A    between atoms: _243  and  _244
REMARK  102  A    between atoms: _253  and  _255
REMARK  103  A    between atoms: _255  and  _256
REMARK  104  A    between atoms: _255  and  _258
REMARK  105  A    between atoms: _258  and  _259
REMARK  106  A    between atoms: _264  and  _266
REMARK  107  A    between atoms: _266  and  _267
REMARK  108  A    between atoms: _266  and  _269
REMARK  109  A    between atoms: _269  and  _270
REMARK  110  A    between atoms: _270  and  _271
REMARK  111  A    between atoms: _271  and  _272
REMARK  112  A    between atoms: _281  and  _283
REMARK  113  A    between atoms: _283  and  _284
REMARK  114  A    between atoms: _283  and  _286
REMARK  115  A    between atoms: _286  and  _287
REMARK  116  A    between atoms: _290  and  _292
REMARK  117  A    between atoms: _292  and  _293
REMARK  118  A    between atoms: _292  and  _295
REMARK  119  A    between atoms: _295  and  _296
REMARK  120  A    between atoms: _299  and  _301
REMARK  121  A    between atoms: _301  and  _302
REMARK  122  A    between atoms: _301  and  _304
REMARK  123  A    between atoms: _304  and  _305
REMARK  124  A    between atoms: _308  and  _310
REMARK  125  A    between atoms: _310  and  _311
REMARK  126  A    between atoms: _310  and  _313
REMARK  127  A    between atoms: _313  and  _314
REMARK  128  A    between atoms: _317  and  _319
REMARK  129  A    between atoms: _319  and  _320
REMARK  130  A    between atoms: _319  and  _322
REMARK  131  A    between atoms: _322  and  _323
REMARK  132  A    between atoms: _326  and  _328
REMARK  133  A    between atoms: _328  and  _329
REMARK  134  A    between atoms: _331  and  _333
REMARK  135  A    between atoms: _333  and  _334
REMARK  136  A    between atoms: _337  and  _339
REMARK  137  A    between atoms: _339  and  _340
REMARK  138  A    between atoms: _339  and  _342
REMARK  139  A    between atoms: _342  and  _343
REMARK  140  A    between atoms: _346  and  _348
REMARK  141  A    between atoms: _348  and  _349
REMARK  142  A    between atoms: _348  and  _351
REMARK  143  A    between atoms: _351  and  _352
REMARK  144  A    between atoms: _357  and  _359
REMARK  145  A    between atoms: _359  and  _360
REMARK  146  A    between atoms: _359  and  _362
REMARK  147  A    between atoms: _362  and  _363
REMARK  148  A    between atoms: _366  and  _368
REMARK  149  A    between atoms: _368  and  _369
REMARK  150  A    between atoms: _368  and  _371
REMARK  151  A    between atoms: _374  and  _376
REMARK  152  A    between atoms: _376  and  _377
REMARK  153  A    between atoms: _376  and  _379
REMARK  154  A    between atoms: _379  and  _380
REMARK  155  A    between atoms: _380  and  _381
REMARK  156  A    between atoms: _381  and  _382
REMARK  157  A    between atoms: _382  and  _383
REMARK  158  A    between atoms: _387  and  _389
REMARK  159  A    between atoms: _389  and  _390
REMARK  160  A    between atoms: _389  and  _392
REMARK  161  A    between atoms: _392  and  _393
REMARK  162  A    between atoms: _393  and  _394
REMARK  163  A    between atoms: _396  and  _398
REMARK  164  A    between atoms: _398  and  _399
REMARK  165  A    between atoms: _398  and  _401
REMARK  166  A    between atoms: _401  and  _402
REMARK  167  A    between atoms: _405  and  _407
REMARK  168  A    between atoms: _407  and  _408
REMARK  169  A    between atoms: _410  and  _412
REMARK  170  A    between atoms: _412  and  _413
REMARK  171  A    between atoms: _415  and  _417
REMARK  172  A    between atoms: _417  and  _418
REMARK  173  A    between atoms: _417  and  _420
REMARK  174  A    between atoms: _420  and  _421
REMARK  175  A    between atoms: _424  and  _426
REMARK  176  A    between atoms: _426  and  _427
REMARK  177  A    between atoms: _429  and  _431
REMARK  178  A    between atoms: _431  and  _432
REMARK  179  A    between atoms: _434  and  _436
REMARK  180  A    between atoms: _436  and  _437
REMARK  181  A    between atoms: _436  and  _439
REMARK  182  A    between atoms: _439  and  _440
REMARK  183  A    between atoms: _446  and  _448
REMARK  184  A    between atoms: _448  and  _449
REMARK  185  A    between atoms: _448  and  _451
REMARK  186  A    between atoms: _451  and  _452
REMARK  187  A    between atoms: _455  and  _457
REMARK  188  A    between atoms: _457  and  _458
REMARK  189  A    between atoms: _457  and  _460
REMARK  190  A    between atoms: _463  and  _465
REMARK  191  A    between atoms: _465  and  _466
REMARK  192  A    between atoms: _465  and  _468
REMARK  193  A    between atoms: _468  and  _469
REMARK  194  A    between atoms: _472  and  _474
REMARK  195  A    between atoms: _474  and  _475
REMARK  196  A    between atoms: _474  and  _477
REMARK  197  A    between atoms: _477  and  _478
REMARK  198  A    between atoms: _482  and  _483
REMARK  199  A    between atoms: _488  and  _490
REMARK  200  A    between atoms: _490  and  _491
REMARK  201  A    between atoms: _490  and  _493
REMARK  202  A    between atoms: _496  and  _498
REMARK  203  A    between atoms: _498  and  _499
REMARK  204  A    between atoms: _498  and  _501
REMARK  205  A    between atoms: _501  and  _502
REMARK  206  A    between atoms: _507  and  _509
REMARK  207  A    between atoms: _509  and  _510
REMARK  208  A    between atoms: _509  and  _512
REMARK  209  A    between atoms: _512  and  _513
REMARK  210  A    between atoms: _516  and  _518
REMARK  211  A    between atoms: _518  and  _519
REMARK  212  A    between atoms: _518  and  _521
REMARK  213  A    between atoms: _521  and  _522
REMARK  214  A    between atoms: _525  and  _527
REMARK  215  A    between atoms: _527  and  _528
REMARK  216  A    between atoms: _530  and  _532
REMARK  217  A    between atoms: _532  and  _533
REMARK  218  A    between atoms: _532  and  _535
REMARK  219  A    between atoms: _535  and  _536
REMARK  220  A    between atoms: _536  and  _537
REMARK  221  A    between atoms: _537  and  _538
REMARK  222  A    between atoms: _547  and  _549
REMARK  223  A    between atoms: _549  and  _550
REMARK  224  A    between atoms: _549  and  _552
REMARK  225  A    between atoms: _552  and  _553
REMARK                            x       y       z     vdW  Elec       q    Type
REMARK                         _______ _______ _______ _____ _____    ______ ____
ROOT
ATOM      1  O   HOH     1     -15.700  54.041   4.092  0.00  0.00    +0.000 OA
ENDROOT
TORSDOF 0
REMARK  Name = ../refined-set-2016/2q63/2q63_pocket.pdb
REMARK  225 active torsions:
REMARK  status: ('A' for Active; 'I' for Inactive)
REMARK    1  A    between atoms: _1  and  _3
REMARK    2  A    between atoms: _3  and  _4
REMARK    3  A    between atoms: _3  and  _6
REMARK    4  A    between atoms: _6  and  _7
REMARK    5  A    between atoms: _7  and  _8
REMARK    6  A    between atoms: _8  and  _9
REMARK    7  A    between atoms: _18  and  _20
REMARK    8  A    between atoms: _20  and  _21
REMARK    9  A    between atoms: _20  and  _23
REMARK   10  A    between atoms: _23  and  _24
REMARK   11  A    between atoms: _27  and  _29
REMARK   12  A    between atoms: _29  and  _30
REMARK   13  A    between atoms: _29  and  _32
REMARK   14  A    between atoms: _32  and  _33
REMARK   15  A    between atoms: _36  and  _38
REMARK   16  A    between atoms: _38  and  _39
REMARK   17  A    between atoms: _38  and  _41
REMARK   18  A    between atoms: _41  and  _42
REMARK   19  A    between atoms: _45  and  _47
REMARK   20  A    between atoms: _47  and  _48
REMARK   21  A    between atoms: _47  and  _50
REMARK   22  A    between atoms: _50  and  _51
REMARK   23  A    between atoms: _54  and  _56
REMARK   24  A    between atoms: _56  and  _57
REMARK   25  A    between atoms: _59  and  _61
REMARK   26  A    between atoms: _61  and  _62
REMARK   27  A    between atoms: _65  and  _67
REMARK   28  A    between atoms: _67  and  _68
REMARK   29  A    between atoms: _67  and  _70
REMARK   30  A    between atoms: _70  and  _71
REMARK   31  A    between atoms: _74  and  _76
REMARK   32  A    between atoms: _76  and  _77
REMARK   33  A    between atoms: _76  and  _79
REMARK   34  A    between atoms: _79  and  _80
REMARK   35  A    between atoms: _85  and  _87
REMARK   36  A    between atoms: _87  and  _88
REMARK   37  A    between atoms: _87  and  _90
REMARK   38  A    between atoms: _90  and  _91
REMARK   39  A    between atoms: _94  and  _96
REMARK   40  A    between atoms: _96  and  _97
REMARK   41  A    between atoms: _96  and  _99
REMARK   42  A    between atoms: _102  and  _104
REMARK   43  A    between atoms: _104  and  _105
REMARK   44  A    between atoms: _104  and  _107
REMARK   45  A    between atoms: _107  and  _108
REMARK   46  A    between atoms: _108  and  _109
REMARK   47  A    between atoms: _109  and  _110
REMARK   48  A    between atoms: _110  and  _111
REMARK   49  A    between atoms: _115  and  _117
REMARK   50  A    between atoms: _117  and  _118
REMARK   51  A    between atoms: _117  and  _120
REMARK   52  A    between atoms: _120  and  _121
REMARK   53  A    between atoms: _124  and  _126
REMARK   54  A    between atoms: _126  and  _127
REMARK   55  A    between atoms: _129  and  _131
REMARK   56  A    between atoms: _131  and  _132
REMARK   57  A    between atoms: _134  and  _136
REMARK   58  A    between atoms: _136  and  _137
REMARK   59  A    between atoms: _136  and  _139
REMARK   60  A    between atoms: _139  and  _140
REMARK   61  A    between atoms: _143  and  _145
REMARK   62  A    between atoms: _145  and  _146
REMARK   63  A    between atoms: _148  and  _150
REMARK   64  A    between atoms: _150  and  _151
REMARK   65  A    between atoms: _153  and  _155
REMARK   66  A    between atoms: _155  and  _156
REMARK   67  A    between atoms: _155  and  _158
REMARK   68  A    between atoms: _158  and  _159
REMARK   69  A    between atoms: _162  and  _164
REMARK   70  A    between atoms: _164  and  _165
REMARK   71  A    between atoms: _164  and  _167
REMARK   72  A    between atoms: _167  and  _168
REMARK   73  A    between atoms: _172  and  _173
REMARK   74  A    between atoms: _178  and  _180
REMARK   75  A    between atoms: _180  and  _181
REMARK   76  A    between atoms: _180  and  _183
REMARK   77  A    between atoms: _183  and  _184
REMARK   78  A    between atoms: _188  and  _189
REMARK   79  A    between atoms: _194  and  _196
REMARK   80  A    between atoms: _196  and  _197
REMARK   81  A    between atoms: _196  and  _199
REMARK   82  A    between atoms: _202  and  _204
REMARK   83  A    between atoms: _204  and  _205
REMARK   84  A    between atoms: _204  and  _207
REMARK   85  A    between atoms: _207  and  _208
REMARK   86  A    between atoms: _213  and  _215
REMARK   87  A    between atoms: _215  and  _216
REMARK   88  A    between atoms: _215  and  _218
REMARK   89  A    between atoms: _218  and  _219
REMARK   90  A    between atoms: _222  and  _224
REMARK   91  A    between atoms: _224  and  _225
REMARK   92  A    between atoms: _224  and  _227
REMARK   93  A    between atoms: _227  and  _228
REMARK   94  A    between atoms: _231  and  _233
REMARK   95  A    between atoms: _233  and  _234
REMARK   96  A    between atoms: _236  and  _238
REMARK   97  A    between atoms: _238  and  _239
REMARK   98  A    between atoms: _238  and  _241
REMARK   99  A    between atoms: _241  and  _242
REMARK  100  A    between atoms: _242  and  _243
REMARK  101  A    between atoms: _243  and  _244
REMARK  102  A    between atoms: _253  and  _255
REMARK  103  A    between atoms: _255  and  _256
REMARK  104  A    between atoms: _255  and  _258
REMARK  105  A    between atoms: _258  and  _259
REMARK  106  A    between atoms: _264  and  _266
REMARK  107  A    between atoms: _266  and  _267
REMARK  108  A    between atoms: _266  and  _269
REMARK  109  A    between atoms: _269  and  _270
REMARK  110  A    between atoms: _270  and  _271
REMARK  111  A    between atoms: _271  and  _272
REMARK  112  A    between atoms: _281  and  _283
REMARK  113  A    between atoms: _283  and  _284
REMARK  114  A    between atoms: _283  and  _286
REMARK  115  A    between atoms: _286  and  _287
REMARK  116  A    between atoms: _290  and  _292
REMARK  117  A    between atoms: _292  and  _293
REMARK  118  A    between atoms: _292  and  _295
REMARK  119  A    between atoms: _295  and  _296
REMARK  120  A    between atoms: _299  and  _301
REMARK  121  A    between atoms: _301  and  _302
REMARK  122  A    between atoms: _301  and  _304
REMARK  123  A    between atoms: _304  and  _305
REMARK  124  A    between atoms: _308  and  _310
REMARK  125  A    between atoms: _310  and  _311
REMARK  126  A    between atoms: _310  and  _313
REMARK  127  A    between atoms: _313  and  _314
REMARK  128  A    between atoms: _317  and  _319
REMARK  129  A    between atoms: _319  and  _320
REMARK  130  A    between atoms: _319  and  _322
REMARK  131  A    between atoms: _322  and  _323
REMARK  132  A    between atoms: _326  and  _328
REMARK  133  A    between atoms: _328  and  _329
REMARK  134  A    between atoms: _331  and  _333
REMARK  135  A    between atoms: _333  and  _334
REMARK  136  A    between atoms: _337  and  _339
REMARK  137  A    between atoms: _339  and  _340
REMARK  138  A    between atoms: _339  and  _342
REMARK  139  A    between atoms: _342  and  _343
REMARK  140  A    between atoms: _346  and  _348
REMARK  141  A    between atoms: _348  and  _349
REMARK  142  A    between atoms: _348  and  _351
REMARK  143  A    between atoms: _351  and  _352
REMARK  144  A    between atoms: _357  and  _359
REMARK  145  A    between atoms: _359  and  _360
REMARK  146  A    between atoms: _359  and  _362
REMARK  147  A    between atoms: _362  and  _363
REMARK  148  A    between atoms: _366  and  _368
REMARK  149  A    between atoms: _368  and  _369
REMARK  150  A    between atoms: _368  and  _371
REMARK  151  A    between atoms: _374  and  _376
REMARK  152  A    between atoms: _376  and  _377
REMARK  153  A    between atoms: _376  and  _379
REMARK  154  A    between atoms: _379  and  _380
REMARK  155  A    between atoms: _380  and  _381
REMARK  156  A    between atoms: _381  and  _382
REMARK  157  A    between atoms: _382  and  _383
REMARK  158  A    between atoms: _387  and  _389
REMARK  159  A    between atoms: _389  and  _390
REMARK  160  A    between atoms: _389  and  _392
REMARK  161  A    between atoms: _392  and  _393
REMARK  162  A    between atoms: _393  and  _394
REMARK  163  A    between atoms: _396  and  _398
REMARK  164  A    between atoms: _398  and  _399
REMARK  165  A    between atoms: _398  and  _401
REMARK  166  A    between atoms: _401  and  _402
REMARK  167  A    between atoms: _405  and  _407
REMARK  168  A    between atoms: _407  and  _408
REMARK  169  A    between atoms: _410  and  _412
REMARK  170  A    between atoms: _412  and  _413
REMARK  171  A    between atoms: _415  and  _417
REMARK  172  A    between atoms: _417  and  _418
REMARK  173  A    between atoms: _417  and  _420
REMARK  174  A    between atoms: _420  and  _421
REMARK  175  A    between atoms: _424  and  _426
REMARK  176  A    between atoms: _426  and  _427
REMARK  177  A    between atoms: _429  and  _431
REMARK  178  A    between atoms: _431  and  _432
REMARK  179  A    between atoms: _434  and  _436
REMARK  180  A    between atoms: _436  and  _437
REMARK  181  A    between atoms: _436  and  _439
REMARK  182  A    between atoms: _439  and  _440
REMARK  183  A    between atoms: _446  and  _448
REMARK  184  A    between atoms: _448  and  _449
REMARK  185  A    between atoms: _448  and  _451
REMARK  186  A    between atoms: _451  and  _452
REMARK  187  A    between atoms: _455  and  _457
REMARK  188  A    between atoms: _457  and  _458
REMARK  189  A    between atoms: _457  and  _460
REMARK  190  A    between atoms: _463  and  _465
REMARK  191  A    between atoms: _465  and  _466
REMARK  192  A    between atoms: _465  and  _468
REMARK  193  A    between atoms: _468  and  _469
REMARK  194  A    between atoms: _472  and  _474
REMARK  195  A    between atoms: _474  and  _475
REMARK  196  A    between atoms: _474  and  _477
REMARK  197  A    between atoms: _477  and  _478
REMARK  198  A    between atoms: _482  and  _483
REMARK  199  A    between atoms: _488  and  _490
REMARK  200  A    between atoms: _490  and  _491
REMARK  201  A    between atoms: _490  and  _493
REMARK  202  A    between atoms: _496  and  _498
REMARK  203  A    between atoms: _498  and  _499
REMARK  204  A    between atoms: _498  and  _501
REMARK  205  A    between atoms: _501  and  _502
REMARK  206  A    between atoms: _507  and  _509
REMARK  207  A    between atoms: _509  and  _510
REMARK  208  A    between atoms: _509  and  _512
REMARK  209  A    between atoms: _512  and  _513
REMARK  210  A    between atoms: _516  and  _518
REMARK  211  A    between atoms: _518  and  _519
REMARK  212  A    between atoms: _518  and  _521
REMARK  213  A    between atoms: _521  and  _522
REMARK  214  A    between atoms: _525  and  _527
REMARK  215  A    between atoms: _527  and  _528
REMARK  216  A    between atoms: _530  and  _532
REMARK  217  A    between atoms: _532  and  _533
REMARK  218  A    between atoms: _532  and  _535
REMARK  219  A    between atoms: _535  and  _536
REMARK  220  A    between atoms: _536  and  _537
REMARK  221  A    between atoms: _537  and  _538
REMARK  222  A    between atoms: _547  and  _549
REMARK  223  A    between atoms: _549  and  _550
REMARK  224  A    between atoms: _549  and  _552
REMARK  225  A    between atoms: _552  and  _553
REMARK                            x       y       z     vdW  Elec       q    Type
REMARK                         _______ _______ _______ _____ _____    ______ ____
ROOT
ATOM      1  O   HOH     1     -10.042  56.092  -8.755  0.00  0.00    +0.000 OA
ENDROOT
TORSDOF 0
REMARK  Name = ../refined-set-2016/2q63/2q63_pocket.pdb
REMARK  225 active torsions:
REMARK  status: ('A' for Active; 'I' for Inactive)
REMARK    1  A    between atoms: _1  and  _3
REMARK    2  A    between atoms: _3  and  _4
REMARK    3  A    between atoms: _3  and  _6
REMARK    4  A    between atoms: _6  and  _7
REMARK    5  A    between atoms: _7  and  _8
REMARK    6  A    between atoms: _8  and  _9
REMARK    7  A    between atoms: _18  and  _20
REMARK    8  A    between atoms: _20  and  _21
REMARK    9  A    between atoms: _20  and  _23
REMARK   10  A    between atoms: _23  and  _24
REMARK   11  A    between atoms: _27  and  _29
REMARK   12  A    between atoms: _29  and  _30
REMARK   13  A    between atoms: _29  and  _32
REMARK   14  A    between atoms: _32  and  _33
REMARK   15  A    between atoms: _36  and  _38
REMARK   16  A    between atoms: _38  and  _39
REMARK   17  A    between atoms: _38  and  _41
REMARK   18  A    between atoms: _41  and  _42
REMARK   19  A    between atoms: _45  and  _47
REMARK   20  A    between atoms: _47  and  _48
REMARK   21  A    between atoms: _47  and  _50
REMARK   22  A    between atoms: _50  and  _51
REMARK   23  A    between atoms: _54  and  _56
REMARK   24  A    between atoms: _56  and  _57
REMARK   25  A    between atoms: _59  and  _61
REMARK   26  A    between atoms: _61  and  _62
REMARK   27  A    between atoms: _65  and  _67
REMARK   28  A    between atoms: _67  and  _68
REMARK   29  A    between atoms: _67  and  _70
REMARK   30  A    between atoms: _70  and  _71
REMARK   31  A    between atoms: _74  and  _76
REMARK   32  A    between atoms: _76  and  _77
REMARK   33  A    between atoms: _76  and  _79
REMARK   34  A    between atoms: _79  and  _80
REMARK   35  A    between atoms: _85  and  _87
REMARK   36  A    between atoms: _87  and  _88
REMARK   37  A    between atoms: _87  and  _90
REMARK   38  A    between atoms: _90  and  _91
REMARK   39  A    between atoms: _94  and  _96
REMARK   40  A    between atoms: _96  and  _97
REMARK   41  A    between atoms: _96  and  _99
REMARK   42  A    between atoms: _102  and  _104
REMARK   43  A    between atoms: _104  and  _105
REMARK   44  A    between atoms: _104  and  _107
REMARK   45  A    between atoms: _107  and  _108
REMARK   46  A    between atoms: _108  and  _109
REMARK   47  A    between atoms: _109  and  _110
REMARK   48  A    between atoms: _110  and  _111
REMARK   49  A    between atoms: _115  and  _117
REMARK   50  A    between atoms: _117  and  _118
REMARK   51  A    between atoms: _117  and  _120
REMARK   52  A    between atoms: _120  and  _121
REMARK   53  A    between atoms: _124  and  _126
REMARK   54  A    between atoms: _126  and  _127
REMARK   55  A    between atoms: _129  and  _131
REMARK   56  A    between atoms: _131  and  _132
REMARK   57  A    between atoms: _134  and  _136
REMARK   58  A    between atoms: _136  and  _137
REMARK   59  A    between atoms: _136  and  _139
REMARK   60  A    between atoms: _139  and  _140
REMARK   61  A    between atoms: _143  and  _145
REMARK   62  A    between atoms: _145  and  _146
REMARK   63  A    between atoms: _148  and  _150
REMARK   64  A    between atoms: _150  and  _151
REMARK   65  A    between atoms: _153  and  _155
REMARK   66  A    between atoms: _155  and  _156
REMARK   67  A    between atoms: _155  and  _158
REMARK   68  A    between atoms: _158  and  _159
REMARK   69  A    between atoms: _162  and  _164
REMARK   70  A    between atoms: _164  and  _165
REMARK   71  A    between atoms: _164  and  _167
REMARK   72  A    between atoms: _167  and  _168
REMARK   73  A    between atoms: _172  and  _173
REMARK   74  A    between atoms: _178  and  _180
REMARK   75  A    between atoms: _180  and  _181
REMARK   76  A    between atoms: _180  and  _183
REMARK   77  A    between atoms: _183  and  _184
REMARK   78  A    between atoms: _188  and  _189
REMARK   79  A    between atoms: _194  and  _196
REMARK   80  A    between atoms: _196  and  _197
REMARK   81  A    between atoms: _196  and  _199
REMARK   82  A    between atoms: _202  and  _204
REMARK   83  A    between atoms: _204  and  _205
REMARK   84  A    between atoms: _204  and  _207
REMARK   85  A    between atoms: _207  and  _208
REMARK   86  A    between atoms: _213  and  _215
REMARK   87  A    between atoms: _215  and  _216
REMARK   88  A    between atoms: _215  and  _218
REMARK   89  A    between atoms: _218  and  _219
REMARK   90  A    between atoms: _222  and  _224
REMARK   91  A    between atoms: _224  and  _225
REMARK   92  A    between atoms: _224  and  _227
REMARK   93  A    between atoms: _227  and  _228
REMARK   94  A    between atoms: _231  and  _233
REMARK   95  A    between atoms: _233  and  _234
REMARK   96  A    between atoms: _236  and  _238
REMARK   97  A    between atoms: _238  and  _239
REMARK   98  A    between atoms: _238  and  _241
REMARK   99  A    between atoms: _241  and  _242
REMARK  100  A    between atoms: _242  and  _243
REMARK  101  A    between atoms: _243  and  _244
REMARK  102  A    between atoms: _253  and  _255
REMARK  103  A    between atoms: _255  and  _256
REMARK  104  A    between atoms: _255  and  _258
REMARK  105  A    between atoms: _258  and  _259
REMARK  106  A    between atoms: _264  and  _266
REMARK  107  A    between atoms: _266  and  _267
REMARK  108  A    between atoms: _266  and  _269
REMARK  109  A    between atoms: _269  and  _270
REMARK  110  A    between atoms: _270  and  _271
REMARK  111  A    between atoms: _271  and  _272
REMARK  112  A    between atoms: _281  and  _283
REMARK  113  A    between atoms: _283  and  _284
REMARK  114  A    between atoms: _283  and  _286
REMARK  115  A    between atoms: _286  and  _287
REMARK  116  A    between atoms: _290  and  _292
REMARK  117  A    between atoms: _292  and  _293
REMARK  118  A    between atoms: _292  and  _295
REMARK  119  A    between atoms: _295  and  _296
REMARK  120  A    between atoms: _299  and  _301
REMARK  121  A    between atoms: _301  and  _302
REMARK  122  A    between atoms: _301  and  _304
REMARK  123  A    between atoms: _304  and  _305
REMARK  124  A    between atoms: _308  and  _310
REMARK  125  A    between atoms: _310  and  _311
REMARK  126  A    between atoms: _310  and  _313
REMARK  127  A    between atoms: _313  and  _314
REMARK  128  A    between atoms: _317  and  _319
REMARK  129  A    between atoms: _319  and  _320
REMARK  130  A    between atoms: _319  and  _322
REMARK  131  A    between atoms: _322  and  _323
REMARK  132  A    between atoms: _326  and  _328
REMARK  133  A    between atoms: _328  and  _329
REMARK  134  A    between atoms: _331  and  _333
REMARK  135  A    between atoms: _333  and  _334
REMARK  136  A    between atoms: _337  and  _339
REMARK  137  A    between atoms: _339  and  _340
REMARK  138  A    between atoms: _339  and  _342
REMARK  139  A    between atoms: _342  and  _343
REMARK  140  A    between atoms: _346  and  _348
REMARK  141  A    between atoms: _348  and  _349
REMARK  142  A    between atoms: _348  and  _351
REMARK  143  A    between atoms: _351  and  _352
REMARK  144  A    between atoms: _357  and  _359
REMARK  145  A    between atoms: _359  and  _360
REMARK  146  A    between atoms: _359  and  _362
REMARK  147  A    between atoms: _362  and  _363
REMARK  148  A    between atoms: _366  and  _368
REMARK  149  A    between atoms: _368  and  _369
REMARK  150  A    between atoms: _368  and  _371
REMARK  151  A    between atoms: _374  and  _376
REMARK  152  A    between atoms: _376  and  _377
REMARK  153  A    between atoms: _376  and  _379
REMARK  154  A    between atoms: _379  and  _380
REMARK  155  A    between atoms: _380  and  _381
REMARK  156  A    between atoms: _381  and  _382
REMARK  157  A    between atoms: _382  and  _383
REMARK  158  A    between atoms: _387  and  _389
REMARK  159  A    between atoms: _389  and  _390
REMARK  160  A    between atoms: _389  and  _392
REMARK  161  A    between atoms: _392  and  _393
REMARK  162  A    between atoms: _393  and  _394
REMARK  163  A    between atoms: _396  and  _398
REMARK  164  A    between atoms: _398  and  _399
REMARK  165  A    between atoms: _398  and  _401
REMARK  166  A    between atoms: _401  and  _402
REMARK  167  A    between atoms: _405  and  _407
REMARK  168  A    between atoms: _407  and  _408
REMARK  169  A    between atoms: _410  and  _412
REMARK  170  A    between atoms: _412  and  _413
REMARK  171  A    between atoms: _415  and  _417
REMARK  172  A    between atoms: _417  and  _418
REMARK  173  A    between atoms: _417  and  _420
REMARK  174  A    between atoms: _420  and  _421
REMARK  175  A    between atoms: _424  and  _426
REMARK  176  A    between atoms: _426  and  _427
REMARK  177  A    between atoms: _429  and  _431
REMARK  178  A    between atoms: _431  and  _432
REMARK  179  A    between atoms: _434  and  _436
REMARK  180  A    between atoms: _436  and  _437
REMARK  181  A    between atoms: _436  and  _439
REMARK  182  A    between atoms: _439  and  _440
REMARK  183  A    between atoms: _446  and  _448
REMARK  184  A    between atoms: _448  and  _449
REMARK  185  A    between atoms: _448  and  _451
REMARK  186  A    between atoms: _451  and  _452
REMARK  187  A    between atoms: _455  and  _457
REMARK  188  A    between atoms: _457  and  _458
REMARK  189  A    between atoms: _457  and  _460
REMARK  190  A    between atoms: _463  and  _465
REMARK  191  A    between atoms: _465  and  _466
REMARK  192  A    between atoms: _465  and  _468
REMARK  193  A    between atoms: _468  and  _469
REMARK  194  A    between atoms: _472  and  _474
REMARK  195  A    between atoms: _474  and  _475
REMARK  196  A    between atoms: _474  and  _477
REMARK  197  A    between atoms: _477  and  _478
REMARK  198  A    between atoms: _482  and  _483
REMARK  199  A    between atoms: _488  and  _490
REMARK  200  A    between atoms: _490  and  _491
REMARK  201  A    between atoms: _490  and  _493
REMARK  202  A    between atoms: _496  and  _498
REMARK  203  A    between atoms: _498  and  _499
REMARK  204  A    between atoms: _498  and  _501
REMARK  205  A    between atoms: _501  and  _502
REMARK  206  A    between atoms: _507  and  _509
REMARK  207  A    between atoms: _509  and  _510
REMARK  208  A    between atoms: _509  and  _512
REMARK  209  A    between atoms: _512  and  _513
REMARK  210  A    between atoms: _516  and  _518
REMARK  211  A    between atoms: _518  and  _519
REMARK  212  A    between atoms: _518  and  _521
REMARK  213  A    between atoms: _521  and  _522
REMARK  214  A    between atoms: _525  and  _527
REMARK  215  A    between atoms: _527  and  _528
REMARK  216  A    between atoms: _530  and  _532
REMARK  217  A    between atoms: _532  and  _533
REMARK  218  A    between atoms: _532  and  _535
REMARK  219  A    between atoms: _535  and  _536
REMARK  220  A    between atoms: _536  and  _537
REMARK  221  A    between atoms: _537  and  _538
REMARK  222  A    between atoms: _547  and  _549
REMARK  223  A    between atoms: _549  and  _550
REMARK  224  A    between atoms: _549  and  _552
REMARK  225  A    between atoms: _552  and  _553
REMARK                            x       y       z     vdW  Elec       q    Type
REMARK                         _______ _______ _______ _____ _____    ______ ____
ROOT
ATOM      1  O   HOH     1      -9.725  53.284 -10.043  0.00  0.00    +0.000 OA
ENDROOT
TORSDOF 0
REMARK  Name = ../refined-set-2016/2q63/2q63_pocket.pdb
REMARK  225 active torsions:
REMARK  status: ('A' for Active; 'I' for Inactive)
REMARK    1  A    between atoms: _1  and  _3
REMARK    2  A    between atoms: _3  and  _4
REMARK    3  A    between atoms: _3  and  _6
REMARK    4  A    between atoms: _6  and  _7
REMARK    5  A    between atoms: _7  and  _8
REMARK    6  A    between atoms: _8  and  _9
REMARK    7  A    between atoms: _18  and  _20
REMARK    8  A    between atoms: _20  and  _21
REMARK    9  A    between atoms: _20  and  _23
REMARK   10  A    between atoms: _23  and  _24
REMARK   11  A    between atoms: _27  and  _29
REMARK   12  A    between atoms: _29  and  _30
REMARK   13  A    between atoms: _29  and  _32
REMARK   14  A    between atoms: _32  and  _33
REMARK   15  A    between atoms: _36  and  _38
REMARK   16  A    between atoms: _38  and  _39
REMARK   17  A    between atoms: _38  and  _41
REMARK   18  A    between atoms: _41  and  _42
REMARK   19  A    between atoms: _45  and  _47
REMARK   20  A    between atoms: _47  and  _48
REMARK   21  A    between atoms: _47  and  _50
REMARK   22  A    between atoms: _50  and  _51
REMARK   23  A    between atoms: _54  and  _56
REMARK   24  A    between atoms: _56  and  _57
REMARK   25  A    between atoms: _59  and  _61
REMARK   26  A    between atoms: _61  and  _62
REMARK   27  A    between atoms: _65  and  _67
REMARK   28  A    between atoms: _67  and  _68
REMARK   29  A    between atoms: _67  and  _70
REMARK   30  A    between atoms: _70  and  _71
REMARK   31  A    between atoms: _74  and  _76
REMARK   32  A    between atoms: _76  and  _77
REMARK   33  A    between atoms: _76  and  _79
REMARK   34  A    between atoms: _79  and  _80
REMARK   35  A    between atoms: _85  and  _87
REMARK   36  A    between atoms: _87  and  _88
REMARK   37  A    between atoms: _87  and  _90
REMARK   38  A    between atoms: _90  and  _91
REMARK   39  A    between atoms: _94  and  _96
REMARK   40  A    between atoms: _96  and  _97
REMARK   41  A    between atoms: _96  and  _99
REMARK   42  A    between atoms: _102  and  _104
REMARK   43  A    between atoms: _104  and  _105
REMARK   44  A    between atoms: _104  and  _107
REMARK   45  A    between atoms: _107  and  _108
REMARK   46  A    between atoms: _108  and  _109
REMARK   47  A    between atoms: _109  and  _110
REMARK   48  A    between atoms: _110  and  _111
REMARK   49  A    between atoms: _115  and  _117
REMARK   50  A    between atoms: _117  and  _118
REMARK   51  A    between atoms: _117  and  _120
REMARK   52  A    between atoms: _120  and  _121
REMARK   53  A    between atoms: _124  and  _126
REMARK   54  A    between atoms: _126  and  _127
REMARK   55  A    between atoms: _129  and  _131
REMARK   56  A    between atoms: _131  and  _132
REMARK   57  A    between atoms: _134  and  _136
REMARK   58  A    between atoms: _136  and  _137
REMARK   59  A    between atoms: _136  and  _139
REMARK   60  A    between atoms: _139  and  _140
REMARK   61  A    between atoms: _143  and  _145
REMARK   62  A    between atoms: _145  and  _146
REMARK   63  A    between atoms: _148  and  _150
REMARK   64  A    between atoms: _150  and  _151
REMARK   65  A    between atoms: _153  and  _155
REMARK   66  A    between atoms: _155  and  _156
REMARK   67  A    between atoms: _155  and  _158
REMARK   68  A    between atoms: _158  and  _159
REMARK   69  A    between atoms: _162  and  _164
REMARK   70  A    between atoms: _164  and  _165
REMARK   71  A    between atoms: _164  and  _167
REMARK   72  A    between atoms: _167  and  _168
REMARK   73  A    between atoms: _172  and  _173
REMARK   74  A    between atoms: _178  and  _180
REMARK   75  A    between atoms: _180  and  _181
REMARK   76  A    between atoms: _180  and  _183
REMARK   77  A    between atoms: _183  and  _184
REMARK   78  A    between atoms: _188  and  _189
REMARK   79  A    between atoms: _194  and  _196
REMARK   80  A    between atoms: _196  and  _197
REMARK   81  A    between atoms: _196  and  _199
REMARK   82  A    between atoms: _202  and  _204
REMARK   83  A    between atoms: _204  and  _205
REMARK   84  A    between atoms: _204  and  _207
REMARK   85  A    between atoms: _207  and  _208
REMARK   86  A    between atoms: _213  and  _215
REMARK   87  A    between atoms: _215  and  _216
REMARK   88  A    between atoms: _215  and  _218
REMARK   89  A    between atoms: _218  and  _219
REMARK   90  A    between atoms: _222  and  _224
REMARK   91  A    between atoms: _224  and  _225
REMARK   92  A    between atoms: _224  and  _227
REMARK   93  A    between atoms: _227  and  _228
REMARK   94  A    between atoms: _231  and  _233
REMARK   95  A    between atoms: _233  and  _234
REMARK   96  A    between atoms: _236  and  _238
REMARK   97  A    between atoms: _238  and  _239
REMARK   98  A    between atoms: _238  and  _241
REMARK   99  A    between atoms: _241  and  _242
REMARK  100  A    between atoms: _242  and  _243
REMARK  101  A    between atoms: _243  and  _244
REMARK  102  A    between atoms: _253  and  _255
REMARK  103  A    between atoms: _255  and  _256
REMARK  104  A    between atoms: _255  and  _258
REMARK  105  A    between atoms: _258  and  _259
REMARK  106  A    between atoms: _264  and  _266
REMARK  107  A    between atoms: _266  and  _267
REMARK  108  A    between atoms: _266  and  _269
REMARK  109  A    between atoms: _269  and  _270
REMARK  110  A    between atoms: _270  and  _271
REMARK  111  A    between atoms: _271  and  _272
REMARK  112  A    between atoms: _281  and  _283
REMARK  113  A    between atoms: _283  and  _284
REMARK  114  A    between atoms: _283  and  _286
REMARK  115  A    between atoms: _286  and  _287
REMARK  116  A    between atoms: _290  and  _292
REMARK  117  A    between atoms: _292  and  _293
REMARK  118  A    between atoms: _292  and  _295
REMARK  119  A    between atoms: _295  and  _296
REMARK  120  A    between atoms: _299  and  _301
REMARK  121  A    between atoms: _301  and  _302
REMARK  122  A    between atoms: _301  and  _304
REMARK  123  A    between atoms: _304  and  _305
REMARK  124  A    between atoms: _308  and  _310
REMARK  125  A    between atoms: _310  and  _311
REMARK  126  A    between atoms: _310  and  _313
REMARK  127  A    between atoms: _313  and  _314
REMARK  128  A    between atoms: _317  and  _319
REMARK  129  A    between atoms: _319  and  _320
REMARK  130  A    between atoms: _319  and  _322
REMARK  131  A    between atoms: _322  and  _323
REMARK  132  A    between atoms: _326  and  _328
REMARK  133  A    between atoms: _328  and  _329
REMARK  134  A    between atoms: _331  and  _333
REMARK  135  A    between atoms: _333  and  _334
REMARK  136  A    between atoms: _337  and  _339
REMARK  137  A    between atoms: _339  and  _340
REMARK  138  A    between atoms: _339  and  _342
REMARK  139  A    between atoms: _342  and  _343
REMARK  140  A    between atoms: _346  and  _348
REMARK  141  A    between atoms: _348  and  _349
REMARK  142  A    between atoms: _348  and  _351
REMARK  143  A    between atoms: _351  and  _352
REMARK  144  A    between atoms: _357  and  _359
REMARK  145  A    between atoms: _359  and  _360
REMARK  146  A    between atoms: _359  and  _362
REMARK  147  A    between atoms: _362  and  _363
REMARK  148  A    between atoms: _366  and  _368
REMARK  149  A    between atoms: _368  and  _369
REMARK  150  A    between atoms: _368  and  _371
REMARK  151  A    between atoms: _374  and  _376
REMARK  152  A    between atoms: _376  and  _377
REMARK  153  A    between atoms: _376  and  _379
REMARK  154  A    between atoms: _379  and  _380
REMARK  155  A    between atoms: _380  and  _381
REMARK  156  A    between atoms: _381  and  _382
REMARK  157  A    between atoms: _382  and  _383
REMARK  158  A    between atoms: _387  and  _389
REMARK  159  A    between atoms: _389  and  _390
REMARK  160  A    between atoms: _389  and  _392
REMARK  161  A    between atoms: _392  and  _393
REMARK  162  A    between atoms: _393  and  _394
REMARK  163  A    between atoms: _396  and  _398
REMARK  164  A    between atoms: _398  and  _399
REMARK  165  A    between atoms: _398  and  _401
REMARK  166  A    between atoms: _401  and  _402
REMARK  167  A    between atoms: _405  and  _407
REMARK  168  A    between atoms: _407  and  _408
REMARK  169  A    between atoms: _410  and  _412
REMARK  170  A    between atoms: _412  and  _413
REMARK  171  A    between atoms: _415  and  _417
REMARK  172  A    between atoms: _417  and  _418
REMARK  173  A    between atoms: _417  and  _420
REMARK  174  A    between atoms: _420  and  _421
REMARK  175  A    between atoms: _424  and  _426
REMARK  176  A    between atoms: _426  and  _427
REMARK  177  A    between atoms: _429  and  _431
REMARK  178  A    between atoms: _431  and  _432
REMARK  179  A    between atoms: _434  and  _436
REMARK  180  A    between atoms: _436  and  _437
REMARK  181  A    between atoms: _436  and  _439
REMARK  182  A    between atoms: _439  and  _440
REMARK  183  A    between atoms: _446  and  _448
REMARK  184  A    between atoms: _448  and  _449
REMARK  185  A    between atoms: _448  and  _451
REMARK  186  A    between atoms: _451  and  _452
REMARK  187  A    between atoms: _455  and  _457
REMARK  188  A    between atoms: _457  and  _458
REMARK  189  A    between atoms: _457  and  _460
REMARK  190  A    between atoms: _463  and  _465
REMARK  191  A    between atoms: _465  and  _466
REMARK  192  A    between atoms: _465  and  _468
REMARK  193  A    between atoms: _468  and  _469
REMARK  194  A    between atoms: _472  and  _474
REMARK  195  A    between atoms: _474  and  _475
REMARK  196  A    between atoms: _474  and  _477
REMARK  197  A    between atoms: _477  and  _478
REMARK  198  A    between atoms: _482  and  _483
REMARK  199  A    between atoms: _488  and  _490
REMARK  200  A    between atoms: _490  and  _491
REMARK  201  A    between atoms: _490  and  _493
REMARK  202  A    between atoms: _496  and  _498
REMARK  203  A    between atoms: _498  and  _499
REMARK  204  A    between atoms: _498  and  _501
REMARK  205  A    between atoms: _501  and  _502
REMARK  206  A    between atoms: _507  and  _509
REMARK  207  A    between atoms: _509  and  _510
REMARK  208  A    between atoms: _509  and  _512
REMARK  209  A    between atoms: _512  and  _513
REMARK  210  A    between atoms: _516  and  _518
REMARK  211  A    between atoms: _518  and  _519
REMARK  212  A    between atoms: _518  and  _521
REMARK  213  A    between atoms: _521  and  _522
REMARK  214  A    between atoms: _525  and  _527
REMARK  215  A    between atoms: _527  and  _528
REMARK  216  A    between atoms: _530  and  _532
REMARK  217  A    between atoms: _532  and  _533
REMARK  218  A    between atoms: _532  and  _535
REMARK  219  A    between atoms: _535  and  _536
REMARK  220  A    between atoms: _536  and  _537
REMARK  221  A    between atoms: _537  and  _538
REMARK  222  A    between atoms: _547  and  _549
REMARK  223  A    between atoms: _549  and  _550
REMARK  224  A    between atoms: _549  and  _552
REMARK  225  A    between atoms: _552  and  _553
REMARK                            x       y       z     vdW  Elec       q    Type
REMARK                         _______ _______ _______ _____ _____    ______ ____
ROOT
ATOM      1  O   HOH     1      -8.404  47.306  -6.870  0.00  0.00    +0.000 OA
ENDROOT
TORSDOF 0
REMARK  Name = ../refined-set-2016/2q63/2q63_pocket.pdb
REMARK  225 active torsions:
REMARK  status: ('A' for Active; 'I' for Inactive)
REMARK    1  A    between atoms: _1  and  _3
REMARK    2  A    between atoms: _3  and  _4
REMARK    3  A    between atoms: _3  and  _6
REMARK    4  A    between atoms: _6  and  _7
REMARK    5  A    between atoms: _7  and  _8
REMARK    6  A    between atoms: _8  and  _9
REMARK    7  A    between atoms: _18  and  _20
REMARK    8  A    between atoms: _20  and  _21
REMARK    9  A    between atoms: _20  and  _23
REMARK   10  A    between atoms: _23  and  _24
REMARK   11  A    between atoms: _27  and  _29
REMARK   12  A    between atoms: _29  and  _30
REMARK   13  A    between atoms: _29  and  _32
REMARK   14  A    between atoms: _32  and  _33
REMARK   15  A    between atoms: _36  and  _38
REMARK   16  A    between atoms: _38  and  _39
REMARK   17  A    between atoms: _38  and  _41
REMARK   18  A    between atoms: _41  and  _42
REMARK   19  A    between atoms: _45  and  _47
REMARK   20  A    between atoms: _47  and  _48
REMARK   21  A    between atoms: _47  and  _50
REMARK   22  A    between atoms: _50  and  _51
REMARK   23  A    between atoms: _54  and  _56
REMARK   24  A    between atoms: _56  and  _57
REMARK   25  A    between atoms: _59  and  _61
REMARK   26  A    between atoms: _61  and  _62
REMARK   27  A    between atoms: _65  and  _67
REMARK   28  A    between atoms: _67  and  _68
REMARK   29  A    between atoms: _67  and  _70
REMARK   30  A    between atoms: _70  and  _71
REMARK   31  A    between atoms: _74  and  _76
REMARK   32  A    between atoms: _76  and  _77
REMARK   33  A    between atoms: _76  and  _79
REMARK   34  A    between atoms: _79  and  _80
REMARK   35  A    between atoms: _85  and  _87
REMARK   36  A    between atoms: _87  and  _88
REMARK   37  A    between atoms: _87  and  _90
REMARK   38  A    between atoms: _90  and  _91
REMARK   39  A    between atoms: _94  and  _96
REMARK   40  A    between atoms: _96  and  _97
REMARK   41  A    between atoms: _96  and  _99
REMARK   42  A    between atoms: _102  and  _104
REMARK   43  A    between atoms: _104  and  _105
REMARK   44  A    between atoms: _104  and  _107
REMARK   45  A    between atoms: _107  and  _108
REMARK   46  A    between atoms: _108  and  _109
REMARK   47  A    between atoms: _109  and  _110
REMARK   48  A    between atoms: _110  and  _111
REMARK   49  A    between atoms: _115  and  _117
REMARK   50  A    between atoms: _117  and  _118
REMARK   51  A    between atoms: _117  and  _120
REMARK   52  A    between atoms: _120  and  _121
REMARK   53  A    between atoms: _124  and  _126
REMARK   54  A    between atoms: _126  and  _127
REMARK   55  A    between atoms: _129  and  _131
REMARK   56  A    between atoms: _131  and  _132
REMARK   57  A    between atoms: _134  and  _136
REMARK   58  A    between atoms: _136  and  _137
REMARK   59  A    between atoms: _136  and  _139
REMARK   60  A    between atoms: _139  and  _140
REMARK   61  A    between atoms: _143  and  _145
REMARK   62  A    between atoms: _145  and  _146
REMARK   63  A    between atoms: _148  and  _150
REMARK   64  A    between atoms: _150  and  _151
REMARK   65  A    between atoms: _153  and  _155
REMARK   66  A    between atoms: _155  and  _156
REMARK   67  A    between atoms: _155  and  _158
REMARK   68  A    between atoms: _158  and  _159
REMARK   69  A    between atoms: _162  and  _164
REMARK   70  A    between atoms: _164  and  _165
REMARK   71  A    between atoms: _164  and  _167
REMARK   72  A    between atoms: _167  and  _168
REMARK   73  A    between atoms: _172  and  _173
REMARK   74  A    between atoms: _178  and  _180
REMARK   75  A    between atoms: _180  and  _181
REMARK   76  A    between atoms: _180  and  _183
REMARK   77  A    between atoms: _183  and  _184
REMARK   78  A    between atoms: _188  and  _189
REMARK   79  A    between atoms: _194  and  _196
REMARK   80  A    between atoms: _196  and  _197
REMARK   81  A    between atoms: _196  and  _199
REMARK   82  A    between atoms: _202  and  _204
REMARK   83  A    between atoms: _204  and  _205
REMARK   84  A    between atoms: _204  and  _207
REMARK   85  A    between atoms: _207  and  _208
REMARK   86  A    between atoms: _213  and  _215
REMARK   87  A    between atoms: _215  and  _216
REMARK   88  A    between atoms: _215  and  _218
REMARK   89  A    between atoms: _218  and  _219
REMARK   90  A    between atoms: _222  and  _224
REMARK   91  A    between atoms: _224  and  _225
REMARK   92  A    between atoms: _224  and  _227
REMARK   93  A    between atoms: _227  and  _228
REMARK   94  A    between atoms: _231  and  _233
REMARK   95  A    between atoms: _233  and  _234
REMARK   96  A    between atoms: _236  and  _238
REMARK   97  A    between atoms: _238  and  _239
REMARK   98  A    between atoms: _238  and  _241
REMARK   99  A    between atoms: _241  and  _242
REMARK  100  A    between atoms: _242  and  _243
REMARK  101  A    between atoms: _243  and  _244
REMARK  102  A    between atoms: _253  and  _255
REMARK  103  A    between atoms: _255  and  _256
REMARK  104  A    between atoms: _255  and  _258
REMARK  105  A    between atoms: _258  and  _259
REMARK  106  A    between atoms: _264  and  _266
REMARK  107  A    between atoms: _266  and  _267
REMARK  108  A    between atoms: _266  and  _269
REMARK  109  A    between atoms: _269  and  _270
REMARK  110  A    between atoms: _270  and  _271
REMARK  111  A    between atoms: _271  and  _272
REMARK  112  A    between atoms: _281  and  _283
REMARK  113  A    between atoms: _283  and  _284
REMARK  114  A    between atoms: _283  and  _286
REMARK  115  A    between atoms: _286  and  _287
REMARK  116  A    between atoms: _290  and  _292
REMARK  117  A    between atoms: _292  and  _293
REMARK  118  A    between atoms: _292  and  _295
REMARK  119  A    between atoms: _295  and  _296
REMARK  120  A    between atoms: _299  and  _301
REMARK  121  A    between atoms: _301  and  _302
REMARK  122  A    between atoms: _301  and  _304
REMARK  123  A    between atoms: _304  and  _305
REMARK  124  A    between atoms: _308  and  _310
REMARK  125  A    between atoms: _310  and  _311
REMARK  126  A    between atoms: _310  and  _313
REMARK  127  A    between atoms: _313  and  _314
REMARK  128  A    between atoms: _317  and  _319
REMARK  129  A    between atoms: _319  and  _320
REMARK  130  A    between atoms: _319  and  _322
REMARK  131  A    between atoms: _322  and  _323
REMARK  132  A    between atoms: _326  and  _328
REMARK  133  A    between atoms: _328  and  _329
REMARK  134  A    between atoms: _331  and  _333
REMARK  135  A    between atoms: _333  and  _334
REMARK  136  A    between atoms: _337  and  _339
REMARK  137  A    between atoms: _339  and  _340
REMARK  138  A    between atoms: _339  and  _342
REMARK  139  A    between atoms: _342  and  _343
REMARK  140  A    between atoms: _346  and  _348
REMARK  141  A    between atoms: _348  and  _349
REMARK  142  A    between atoms: _348  and  _351
REMARK  143  A    between atoms: _351  and  _352
REMARK  144  A    between atoms: _357  and  _359
REMARK  145  A    between atoms: _359  and  _360
REMARK  146  A    between atoms: _359  and  _362
REMARK  147  A    between atoms: _362  and  _363
REMARK  148  A    between atoms: _366  and  _368
REMARK  149  A    between atoms: _368  and  _369
REMARK  150  A    between atoms: _368  and  _371
REMARK  151  A    between atoms: _374  and  _376
REMARK  152  A    between atoms: _376  and  _377
REMARK  153  A    between atoms: _376  and  _379
REMARK  154  A    between atoms: _379  and  _380
REMARK  155  A    between atoms: _380  and  _381
REMARK  156  A    between atoms: _381  and  _382
REMARK  157  A    between atoms: _382  and  _383
REMARK  158  A    between atoms: _387  and  _389
REMARK  159  A    between atoms: _389  and  _390
REMARK  160  A    between atoms: _389  and  _392
REMARK  161  A    between atoms: _392  and  _393
REMARK  162  A    between atoms: _393  and  _394
REMARK  163  A    between atoms: _396  and  _398
REMARK  164  A    between atoms: _398  and  _399
REMARK  165  A    between atoms: _398  and  _401
REMARK  166  A    between atoms: _401  and  _402
REMARK  167  A    between atoms: _405  and  _407
REMARK  168  A    between atoms: _407  and  _408
REMARK  169  A    between atoms: _410  and  _412
REMARK  170  A    between atoms: _412  and  _413
REMARK  171  A    between atoms: _415  and  _417
REMARK  172  A    between atoms: _417  and  _418
REMARK  173  A    between atoms: _417  and  _420
REMARK  174  A    between atoms: _420  and  _421
REMARK  175  A    between atoms: _424  and  _426
REMARK  176  A    between atoms: _426  and  _427
REMARK  177  A    between atoms: _429  and  _431
REMARK  178  A    between atoms: _431  and  _432
REMARK  179  A    between atoms: _434  and  _436
REMARK  180  A    between atoms: _436  and  _437
REMARK  181  A    between atoms: _436  and  _439
REMARK  182  A    between atoms: _439  and  _440
REMARK  183  A    between atoms: _446  and  _448
REMARK  184  A    between atoms: _448  and  _449
REMARK  185  A    between atoms: _448  and  _451
REMARK  186  A    between atoms: _451  and  _452
REMARK  187  A    between atoms: _455  and  _457
REMARK  188  A    between atoms: _457  and  _458
REMARK  189  A    between atoms: _457  and  _460
REMARK  190  A    between atoms: _463  and  _465
REMARK  191  A    between atoms: _465  and  _466
REMARK  192  A    between atoms: _465  and  _468
REMARK  193  A    between atoms: _468  and  _469
REMARK  194  A    between atoms: _472  and  _474
REMARK  195  A    between atoms: _474  and  _475
REMARK  196  A    between atoms: _474  and  _477
REMARK  197  A    between atoms: _477  and  _478
REMARK  198  A    between atoms: _482  and  _483
REMARK  199  A    between atoms: _488  and  _490
REMARK  200  A    between atoms: _490  and  _491
REMARK  201  A    between atoms: _490  and  _493
REMARK  202  A    between atoms: _496  and  _498
REMARK  203  A    between atoms: _498  and  _499
REMARK  204  A    between atoms: _498  and  _501
REMARK  205  A    between atoms: _501  and  _502
REMARK  206  A    between atoms: _507  and  _509
REMARK  207  A    between atoms: _509  and  _510
REMARK  208  A    between atoms: _509  and  _512
REMARK  209  A    between atoms: _512  and  _513
REMARK  210  A    between atoms: _516  and  _518
REMARK  211  A    between atoms: _518  and  _519
REMARK  212  A    between atoms: _518  and  _521
REMARK  213  A    between atoms: _521  and  _522
REMARK  214  A    between atoms: _525  and  _527
REMARK  215  A    between atoms: _527  and  _528
REMARK  216  A    between atoms: _530  and  _532
REMARK  217  A    between atoms: _532  and  _533
REMARK  218  A    between atoms: _532  and  _535
REMARK  219  A    between atoms: _535  and  _536
REMARK  220  A    between atoms: _536  and  _537
REMARK  221  A    between atoms: _537  and  _538
REMARK  222  A    between atoms: _547  and  _549
REMARK  223  A    between atoms: _549  and  _550
REMARK  224  A    between atoms: _549  and  _552
REMARK  225  A    between atoms: _552  and  _553
REMARK                            x       y       z     vdW  Elec       q    Type
REMARK                         _______ _______ _______ _____ _____    ______ ____
ROOT
ATOM      1  O   HOH     1     -15.244  49.966  -7.706  0.00  0.00    +0.000 OA
ENDROOT
TORSDOF 0
REMARK  Name = ../refined-set-2016/2q63/2q63_pocket.pdb
REMARK  225 active torsions:
REMARK  status: ('A' for Active; 'I' for Inactive)
REMARK    1  A    between atoms: _1  and  _3
REMARK    2  A    between atoms: _3  and  _4
REMARK    3  A    between atoms: _3  and  _6
REMARK    4  A    between atoms: _6  and  _7
REMARK    5  A    between atoms: _7  and  _8
REMARK    6  A    between atoms: _8  and  _9
REMARK    7  A    between atoms: _18  and  _20
REMARK    8  A    between atoms: _20  and  _21
REMARK    9  A    between atoms: _20  and  _23
REMARK   10  A    between atoms: _23  and  _24
REMARK   11  A    between atoms: _27  and  _29
REMARK   12  A    between atoms: _29  and  _30
REMARK   13  A    between atoms: _29  and  _32
REMARK   14  A    between atoms: _32  and  _33
REMARK   15  A    between atoms: _36  and  _38
REMARK   16  A    between atoms: _38  and  _39
REMARK   17  A    between atoms: _38  and  _41
REMARK   18  A    between atoms: _41  and  _42
REMARK   19  A    between atoms: _45  and  _47
REMARK   20  A    between atoms: _47  and  _48
REMARK   21  A    between atoms: _47  and  _50
REMARK   22  A    between atoms: _50  and  _51
REMARK   23  A    between atoms: _54  and  _56
REMARK   24  A    between atoms: _56  and  _57
REMARK   25  A    between atoms: _59  and  _61
REMARK   26  A    between atoms: _61  and  _62
REMARK   27  A    between atoms: _65  and  _67
REMARK   28  A    between atoms: _67  and  _68
REMARK   29  A    between atoms: _67  and  _70
REMARK   30  A    between atoms: _70  and  _71
REMARK   31  A    between atoms: _74  and  _76
REMARK   32  A    between atoms: _76  and  _77
REMARK   33  A    between atoms: _76  and  _79
REMARK   34  A    between atoms: _79  and  _80
REMARK   35  A    between atoms: _85  and  _87
REMARK   36  A    between atoms: _87  and  _88
REMARK   37  A    between atoms: _87  and  _90
REMARK   38  A    between atoms: _90  and  _91
REMARK   39  A    between atoms: _94  and  _96
REMARK   40  A    between atoms: _96  and  _97
REMARK   41  A    between atoms: _96  and  _99
REMARK   42  A    between atoms: _102  and  _104
REMARK   43  A    between atoms: _104  and  _105
REMARK   44  A    between atoms: _104  and  _107
REMARK   45  A    between atoms: _107  and  _108
REMARK   46  A    between atoms: _108  and  _109
REMARK   47  A    between atoms: _109  and  _110
REMARK   48  A    between atoms: _110  and  _111
REMARK   49  A    between atoms: _115  and  _117
REMARK   50  A    between atoms: _117  and  _118
REMARK   51  A    between atoms: _117  and  _120
REMARK   52  A    between atoms: _120  and  _121
REMARK   53  A    between atoms: _124  and  _126
REMARK   54  A    between atoms: _126  and  _127
REMARK   55  A    between atoms: _129  and  _131
REMARK   56  A    between atoms: _131  and  _132
REMARK   57  A    between atoms: _134  and  _136
REMARK   58  A    between atoms: _136  and  _137
REMARK   59  A    between atoms: _136  and  _139
REMARK   60  A    between atoms: _139  and  _140
REMARK   61  A    between atoms: _143  and  _145
REMARK   62  A    between atoms: _145  and  _146
REMARK   63  A    between atoms: _148  and  _150
REMARK   64  A    between atoms: _150  and  _151
REMARK   65  A    between atoms: _153  and  _155
REMARK   66  A    between atoms: _155  and  _156
REMARK   67  A    between atoms: _155  and  _158
REMARK   68  A    between atoms: _158  and  _159
REMARK   69  A    between atoms: _162  and  _164
REMARK   70  A    between atoms: _164  and  _165
REMARK   71  A    between atoms: _164  and  _167
REMARK   72  A    between atoms: _167  and  _168
REMARK   73  A    between atoms: _172  and  _173
REMARK   74  A    between atoms: _178  and  _180
REMARK   75  A    between atoms: _180  and  _181
REMARK   76  A    between atoms: _180  and  _183
REMARK   77  A    between atoms: _183  and  _184
REMARK   78  A    between atoms: _188  and  _189
REMARK   79  A    between atoms: _194  and  _196
REMARK   80  A    between atoms: _196  and  _197
REMARK   81  A    between atoms: _196  and  _199
REMARK   82  A    between atoms: _202  and  _204
REMARK   83  A    between atoms: _204  and  _205
REMARK   84  A    between atoms: _204  and  _207
REMARK   85  A    between atoms: _207  and  _208
REMARK   86  A    between atoms: _213  and  _215
REMARK   87  A    between atoms: _215  and  _216
REMARK   88  A    between atoms: _215  and  _218
REMARK   89  A    between atoms: _218  and  _219
REMARK   90  A    between atoms: _222  and  _224
REMARK   91  A    between atoms: _224  and  _225
REMARK   92  A    between atoms: _224  and  _227
REMARK   93  A    between atoms: _227  and  _228
REMARK   94  A    between atoms: _231  and  _233
REMARK   95  A    between atoms: _233  and  _234
REMARK   96  A    between atoms: _236  and  _238
REMARK   97  A    between atoms: _238  and  _239
REMARK   98  A    between atoms: _238  and  _241
REMARK   99  A    between atoms: _241  and  _242
REMARK  100  A    between atoms: _242  and  _243
REMARK  101  A    between atoms: _243  and  _244
REMARK  102  A    between atoms: _253  and  _255
REMARK  103  A    between atoms: _255  and  _256
REMARK  104  A    between atoms: _255  and  _258
REMARK  105  A    between atoms: _258  and  _259
REMARK  106  A    between atoms: _264  and  _266
REMARK  107  A    between atoms: _266  and  _267
REMARK  108  A    between atoms: _266  and  _269
REMARK  109  A    between atoms: _269  and  _270
REMARK  110  A    between atoms: _270  and  _271
REMARK  111  A    between atoms: _271  and  _272
REMARK  112  A    between atoms: _281  and  _283
REMARK  113  A    between atoms: _283  and  _284
REMARK  114  A    between atoms: _283  and  _286
REMARK  115  A    between atoms: _286  and  _287
REMARK  116  A    between atoms: _290  and  _292
REMARK  117  A    between atoms: _292  and  _293
REMARK  118  A    between atoms: _292  and  _295
REMARK  119  A    between atoms: _295  and  _296
REMARK  120  A    between atoms: _299  and  _301
REMARK  121  A    between atoms: _301  and  _302
REMARK  122  A    between atoms: _301  and  _304
REMARK  123  A    between atoms: _304  and  _305
REMARK  124  A    between atoms: _308  and  _310
REMARK  125  A    between atoms: _310  and  _311
REMARK  126  A    between atoms: _310  and  _313
REMARK  127  A    between atoms: _313  and  _314
REMARK  128  A    between atoms: _317  and  _319
REMARK  129  A    between atoms: _319  and  _320
REMARK  130  A    between atoms: _319  and  _322
REMARK  131  A    between atoms: _322  and  _323
REMARK  132  A    between atoms: _326  and  _328
REMARK  133  A    between atoms: _328  and  _329
REMARK  134  A    between atoms: _331  and  _333
REMARK  135  A    between atoms: _333  and  _334
REMARK  136  A    between atoms: _337  and  _339
REMARK  137  A    between atoms: _339  and  _340
REMARK  138  A    between atoms: _339  and  _342
REMARK  139  A    between atoms: _342  and  _343
REMARK  140  A    between atoms: _346  and  _348
REMARK  141  A    between atoms: _348  and  _349
REMARK  142  A    between atoms: _348  and  _351
REMARK  143  A    between atoms: _351  and  _352
REMARK  144  A    between atoms: _357  and  _359
REMARK  145  A    between atoms: _359  and  _360
REMARK  146  A    between atoms: _359  and  _362
REMARK  147  A    between atoms: _362  and  _363
REMARK  148  A    between atoms: _366  and  _368
REMARK  149  A    between atoms: _368  and  _369
REMARK  150  A    between atoms: _368  and  _371
REMARK  151  A    between atoms: _374  and  _376
REMARK  152  A    between atoms: _376  and  _377
REMARK  153  A    between atoms: _376  and  _379
REMARK  154  A    between atoms: _379  and  _380
REMARK  155  A    between atoms: _380  and  _381
REMARK  156  A    between atoms: _381  and  _382
REMARK  157  A    between atoms: _382  and  _383
REMARK  158  A    between atoms: _387  and  _389
REMARK  159  A    between atoms: _389  and  _390
REMARK  160  A    between atoms: _389  and  _392
REMARK  161  A    between atoms: _392  and  _393
REMARK  162  A    between atoms: _393  and  _394
REMARK  163  A    between atoms: _396  and  _398
REMARK  164  A    between atoms: _398  and  _399
REMARK  165  A    between atoms: _398  and  _401
REMARK  166  A    between atoms: _401  and  _402
REMARK  167  A    between atoms: _405  and  _407
REMARK  168  A    between atoms: _407  and  _408
REMARK  169  A    between atoms: _410  and  _412
REMARK  170  A    between atoms: _412  and  _413
REMARK  171  A    between atoms: _415  and  _417
REMARK  172  A    between atoms: _417  and  _418
REMARK  173  A    between atoms: _417  and  _420
REMARK  174  A    between atoms: _420  and  _421
REMARK  175  A    between atoms: _424  and  _426
REMARK  176  A    between atoms: _426  and  _427
REMARK  177  A    between atoms: _429  and  _431
REMARK  178  A    between atoms: _431  and  _432
REMARK  179  A    between atoms: _434  and  _436
REMARK  180  A    between atoms: _436  and  _437
REMARK  181  A    between atoms: _436  and  _439
REMARK  182  A    between atoms: _439  and  _440
REMARK  183  A    between atoms: _446  and  _448
REMARK  184  A    between atoms: _448  and  _449
REMARK  185  A    between atoms: _448  and  _451
REMARK  186  A    between atoms: _451  and  _452
REMARK  187  A    between atoms: _455  and  _457
REMARK  188  A    between atoms: _457  and  _458
REMARK  189  A    between atoms: _457  and  _460
REMARK  190  A    between atoms: _463  and  _465
REMARK  191  A    between atoms: _465  and  _466
REMARK  192  A    between atoms: _465  and  _468
REMARK  193  A    between atoms: _468  and  _469
REMARK  194  A    between atoms: _472  and  _474
REMARK  195  A    between atoms: _474  and  _475
REMARK  196  A    between atoms: _474  and  _477
REMARK  197  A    between atoms: _477  and  _478
REMARK  198  A    between atoms: _482  and  _483
REMARK  199  A    between atoms: _488  and  _490
REMARK  200  A    between atoms: _490  and  _491
REMARK  201  A    between atoms: _490  and  _493
REMARK  202  A    between atoms: _496  and  _498
REMARK  203  A    between atoms: _498  and  _499
REMARK  204  A    between atoms: _498  and  _501
REMARK  205  A    between atoms: _501  and  _502
REMARK  206  A    between atoms: _507  and  _509
REMARK  207  A    between atoms: _509  and  _510
REMARK  208  A    between atoms: _509  and  _512
REMARK  209  A    between atoms: _512  and  _513
REMARK  210  A    between atoms: _516  and  _518
REMARK  211  A    between atoms: _518  and  _519
REMARK  212  A    between atoms: _518  and  _521
REMARK  213  A    between atoms: _521  and  _522
REMARK  214  A    between atoms: _525  and  _527
REMARK  215  A    between atoms: _527  and  _528
REMARK  216  A    between atoms: _530  and  _532
REMARK  217  A    between atoms: _532  and  _533
REMARK  218  A    between atoms: _532  and  _535
REMARK  219  A    between atoms: _535  and  _536
REMARK  220  A    between atoms: _536  and  _537
REMARK  221  A    between atoms: _537  and  _538
REMARK  222  A    between atoms: _547  and  _549
REMARK  223  A    between atoms: _549  and  _550
REMARK  224  A    between atoms: _549  and  _552
REMARK  225  A    between atoms: _552  and  _553
REMARK                            x       y       z     vdW  Elec       q    Type
REMARK                         _______ _______ _______ _____ _____    ______ ____
ROOT
ATOM      1  O   HOH     1      -6.832  50.371  -7.467  0.00  0.00    +0.000 OA
ENDROOT
TORSDOF 0
REMARK  Name = ../refined-set-2016/2q63/2q63_pocket.pdb
REMARK  225 active torsions:
REMARK  status: ('A' for Active; 'I' for Inactive)
REMARK    1  A    between atoms: _1  and  _3
REMARK    2  A    between atoms: _3  and  _4
REMARK    3  A    between atoms: _3  and  _6
REMARK    4  A    between atoms: _6  and  _7
REMARK    5  A    between atoms: _7  and  _8
REMARK    6  A    between atoms: _8  and  _9
REMARK    7  A    between atoms: _18  and  _20
REMARK    8  A    between atoms: _20  and  _21
REMARK    9  A    between atoms: _20  and  _23
REMARK   10  A    between atoms: _23  and  _24
REMARK   11  A    between atoms: _27  and  _29
REMARK   12  A    between atoms: _29  and  _30
REMARK   13  A    between atoms: _29  and  _32
REMARK   14  A    between atoms: _32  and  _33
REMARK   15  A    between atoms: _36  and  _38
REMARK   16  A    between atoms: _38  and  _39
REMARK   17  A    between atoms: _38  and  _41
REMARK   18  A    between atoms: _41  and  _42
REMARK   19  A    between atoms: _45  and  _47
REMARK   20  A    between atoms: _47  and  _48
REMARK   21  A    between atoms: _47  and  _50
REMARK   22  A    between atoms: _50  and  _51
REMARK   23  A    between atoms: _54  and  _56
REMARK   24  A    between atoms: _56  and  _57
REMARK   25  A    between atoms: _59  and  _61
REMARK   26  A    between atoms: _61  and  _62
REMARK   27  A    between atoms: _65  and  _67
REMARK   28  A    between atoms: _67  and  _68
REMARK   29  A    between atoms: _67  and  _70
REMARK   30  A    between atoms: _70  and  _71
REMARK   31  A    between atoms: _74  and  _76
REMARK   32  A    between atoms: _76  and  _77
REMARK   33  A    between atoms: _76  and  _79
REMARK   34  A    between atoms: _79  and  _80
REMARK   35  A    between atoms: _85  and  _87
REMARK   36  A    between atoms: _87  and  _88
REMARK   37  A    between atoms: _87  and  _90
REMARK   38  A    between atoms: _90  and  _91
REMARK   39  A    between atoms: _94  and  _96
REMARK   40  A    between atoms: _96  and  _97
REMARK   41  A    between atoms: _96  and  _99
REMARK   42  A    between atoms: _102  and  _104
REMARK   43  A    between atoms: _104  and  _105
REMARK   44  A    between atoms: _104  and  _107
REMARK   45  A    between atoms: _107  and  _108
REMARK   46  A    between atoms: _108  and  _109
REMARK   47  A    between atoms: _109  and  _110
REMARK   48  A    between atoms: _110  and  _111
REMARK   49  A    between atoms: _115  and  _117
REMARK   50  A    between atoms: _117  and  _118
REMARK   51  A    between atoms: _117  and  _120
REMARK   52  A    between atoms: _120  and  _121
REMARK   53  A    between atoms: _124  and  _126
REMARK   54  A    between atoms: _126  and  _127
REMARK   55  A    between atoms: _129  and  _131
REMARK   56  A    between atoms: _131  and  _132
REMARK   57  A    between atoms: _134  and  _136
REMARK   58  A    between atoms: _136  and  _137
REMARK   59  A    between atoms: _136  and  _139
REMARK   60  A    between atoms: _139  and  _140
REMARK   61  A    between atoms: _143  and  _145
REMARK   62  A    between atoms: _145  and  _146
REMARK   63  A    between atoms: _148  and  _150
REMARK   64  A    between atoms: _150  and  _151
REMARK   65  A    between atoms: _153  and  _155
REMARK   66  A    between atoms: _155  and  _156
REMARK   67  A    between atoms: _155  and  _158
REMARK   68  A    between atoms: _158  and  _159
REMARK   69  A    between atoms: _162  and  _164
REMARK   70  A    between atoms: _164  and  _165
REMARK   71  A    between atoms: _164  and  _167
REMARK   72  A    between atoms: _167  and  _168
REMARK   73  A    between atoms: _172  and  _173
REMARK   74  A    between atoms: _178  and  _180
REMARK   75  A    between atoms: _180  and  _181
REMARK   76  A    between atoms: _180  and  _183
REMARK   77  A    between atoms: _183  and  _184
REMARK   78  A    between atoms: _188  and  _189
REMARK   79  A    between atoms: _194  and  _196
REMARK   80  A    between atoms: _196  and  _197
REMARK   81  A    between atoms: _196  and  _199
REMARK   82  A    between atoms: _202  and  _204
REMARK   83  A    between atoms: _204  and  _205
REMARK   84  A    between atoms: _204  and  _207
REMARK   85  A    between atoms: _207  and  _208
REMARK   86  A    between atoms: _213  and  _215
REMARK   87  A    between atoms: _215  and  _216
REMARK   88  A    between atoms: _215  and  _218
REMARK   89  A    between atoms: _218  and  _219
REMARK   90  A    between atoms: _222  and  _224
REMARK   91  A    between atoms: _224  and  _225
REMARK   92  A    between atoms: _224  and  _227
REMARK   93  A    between atoms: _227  and  _228
REMARK   94  A    between atoms: _231  and  _233
REMARK   95  A    between atoms: _233  and  _234
REMARK   96  A    between atoms: _236  and  _238
REMARK   97  A    between atoms: _238  and  _239
REMARK   98  A    between atoms: _238  and  _241
REMARK   99  A    between atoms: _241  and  _242
REMARK  100  A    between atoms: _242  and  _243
REMARK  101  A    between atoms: _243  and  _244
REMARK  102  A    between atoms: _253  and  _255
REMARK  103  A    between atoms: _255  and  _256
REMARK  104  A    between atoms: _255  and  _258
REMARK  105  A    between atoms: _258  and  _259
REMARK  106  A    between atoms: _264  and  _266
REMARK  107  A    between atoms: _266  and  _267
REMARK  108  A    between atoms: _266  and  _269
REMARK  109  A    between atoms: _269  and  _270
REMARK  110  A    between atoms: _270  and  _271
REMARK  111  A    between atoms: _271  and  _272
REMARK  112  A    between atoms: _281  and  _283
REMARK  113  A    between atoms: _283  and  _284
REMARK  114  A    between atoms: _283  and  _286
REMARK  115  A    between atoms: _286  and  _287
REMARK  116  A    between atoms: _290  and  _292
REMARK  117  A    between atoms: _292  and  _293
REMARK  118  A    between atoms: _292  and  _295
REMARK  119  A    between atoms: _295  and  _296
REMARK  120  A    between atoms: _299  and  _301
REMARK  121  A    between atoms: _301  and  _302
REMARK  122  A    between atoms: _301  and  _304
REMARK  123  A    between atoms: _304  and  _305
REMARK  124  A    between atoms: _308  and  _310
REMARK  125  A    between atoms: _310  and  _311
REMARK  126  A    between atoms: _310  and  _313
REMARK  127  A    between atoms: _313  and  _314
REMARK  128  A    between atoms: _317  and  _319
REMARK  129  A    between atoms: _319  and  _320
REMARK  130  A    between atoms: _319  and  _322
REMARK  131  A    between atoms: _322  and  _323
REMARK  132  A    between atoms: _326  and  _328
REMARK  133  A    between atoms: _328  and  _329
REMARK  134  A    between atoms: _331  and  _333
REMARK  135  A    between atoms: _333  and  _334
REMARK  136  A    between atoms: _337  and  _339
REMARK  137  A    between atoms: _339  and  _340
REMARK  138  A    between atoms: _339  and  _342
REMARK  139  A    between atoms: _342  and  _343
REMARK  140  A    between atoms: _346  and  _348
REMARK  141  A    between atoms: _348  and  _349
REMARK  142  A    between atoms: _348  and  _351
REMARK  143  A    between atoms: _351  and  _352
REMARK  144  A    between atoms: _357  and  _359
REMARK  145  A    between atoms: _359  and  _360
REMARK  146  A    between atoms: _359  and  _362
REMARK  147  A    between atoms: _362  and  _363
REMARK  148  A    between atoms: _366  and  _368
REMARK  149  A    between atoms: _368  and  _369
REMARK  150  A    between atoms: _368  and  _371
REMARK  151  A    between atoms: _374  and  _376
REMARK  152  A    between atoms: _376  and  _377
REMARK  153  A    between atoms: _376  and  _379
REMARK  154  A    between atoms: _379  and  _380
REMARK  155  A    between atoms: _380  and  _381
REMARK  156  A    between atoms: _381  and  _382
REMARK  157  A    between atoms: _382  and  _383
REMARK  158  A    between atoms: _387  and  _389
REMARK  159  A    between atoms: _389  and  _390
REMARK  160  A    between atoms: _389  and  _392
REMARK  161  A    between atoms: _392  and  _393
REMARK  162  A    between atoms: _393  and  _394
REMARK  163  A    between atoms: _396  and  _398
REMARK  164  A    between atoms: _398  and  _399
REMARK  165  A    between atoms: _398  and  _401
REMARK  166  A    between atoms: _401  and  _402
REMARK  167  A    between atoms: _405  and  _407
REMARK  168  A    between atoms: _407  and  _408
REMARK  169  A    between atoms: _410  and  _412
REMARK  170  A    between atoms: _412  and  _413
REMARK  171  A    between atoms: _415  and  _417
REMARK  172  A    between atoms: _417  and  _418
REMARK  173  A    between atoms: _417  and  _420
REMARK  174  A    between atoms: _420  and  _421
REMARK  175  A    between atoms: _424  and  _426
REMARK  176  A    between atoms: _426  and  _427
REMARK  177  A    between atoms: _429  and  _431
REMARK  178  A    between atoms: _431  and  _432
REMARK  179  A    between atoms: _434  and  _436
REMARK  180  A    between atoms: _436  and  _437
REMARK  181  A    between atoms: _436  and  _439
REMARK  182  A    between atoms: _439  and  _440
REMARK  183  A    between atoms: _446  and  _448
REMARK  184  A    between atoms: _448  and  _449
REMARK  185  A    between atoms: _448  and  _451
REMARK  186  A    between atoms: _451  and  _452
REMARK  187  A    between atoms: _455  and  _457
REMARK  188  A    between atoms: _457  and  _458
REMARK  189  A    between atoms: _457  and  _460
REMARK  190  A    between atoms: _463  and  _465
REMARK  191  A    between atoms: _465  and  _466
REMARK  192  A    between atoms: _465  and  _468
REMARK  193  A    between atoms: _468  and  _469
REMARK  194  A    between atoms: _472  and  _474
REMARK  195  A    between atoms: _474  and  _475
REMARK  196  A    between atoms: _474  and  _477
REMARK  197  A    between atoms: _477  and  _478
REMARK  198  A    between atoms: _482  and  _483
REMARK  199  A    between atoms: _488  and  _490
REMARK  200  A    between atoms: _490  and  _491
REMARK  201  A    between atoms: _490  and  _493
REMARK  202  A    between atoms: _496  and  _498
REMARK  203  A    between atoms: _498  and  _499
REMARK  204  A    between atoms: _498  and  _501
REMARK  205  A    between atoms: _501  and  _502
REMARK  206  A    between atoms: _507  and  _509
REMARK  207  A    between atoms: _509  and  _510
REMARK  208  A    between atoms: _509  and  _512
REMARK  209  A    between atoms: _512  and  _513
REMARK  210  A    between atoms: _516  and  _518
REMARK  211  A    between atoms: _518  and  _519
REMARK  212  A    between atoms: _518  and  _521
REMARK  213  A    between atoms: _521  and  _522
REMARK  214  A    between atoms: _525  and  _527
REMARK  215  A    between atoms: _527  and  _528
REMARK  216  A    between atoms: _530  and  _532
REMARK  217  A    between atoms: _532  and  _533
REMARK  218  A    between atoms: _532  and  _535
REMARK  219  A    between atoms: _535  and  _536
REMARK  220  A    between atoms: _536  and  _537
REMARK  221  A    between atoms: _537  and  _538
REMARK  222  A    between atoms: _547  and  _549
REMARK  223  A    between atoms: _549  and  _550
REMARK  224  A    between atoms: _549  and  _552
REMARK  225  A    between atoms: _552  and  _553
REMARK                            x       y       z     vdW  Elec       q    Type
REMARK                         _______ _______ _______ _____ _____    ______ ____
ROOT
ATOM      1  O   HOH     1      -9.691  65.174   6.807  0.00  0.00    +0.000 OA
ENDROOT
TORSDOF 0
REMARK  Name = ../refined-set-2016/2q63/2q63_pocket.pdb
REMARK  225 active torsions:
REMARK  status: ('A' for Active; 'I' for Inactive)
REMARK    1  A    between atoms: _1  and  _3
REMARK    2  A    between atoms: _3  and  _4
REMARK    3  A    between atoms: _3  and  _6
REMARK    4  A    between atoms: _6  and  _7
REMARK    5  A    between atoms: _7  and  _8
REMARK    6  A    between atoms: _8  and  _9
REMARK    7  A    between atoms: _18  and  _20
REMARK    8  A    between atoms: _20  and  _21
REMARK    9  A    between atoms: _20  and  _23
REMARK   10  A    between atoms: _23  and  _24
REMARK   11  A    between atoms: _27  and  _29
REMARK   12  A    between atoms: _29  and  _30
REMARK   13  A    between atoms: _29  and  _32
REMARK   14  A    between atoms: _32  and  _33
REMARK   15  A    between atoms: _36  and  _38
REMARK   16  A    between atoms: _38  and  _39
REMARK   17  A    between atoms: _38  and  _41
REMARK   18  A    between atoms: _41  and  _42
REMARK   19  A    between atoms: _45  and  _47
REMARK   20  A    between atoms: _47  and  _48
REMARK   21  A    between atoms: _47  and  _50
REMARK   22  A    between atoms: _50  and  _51
REMARK   23  A    between atoms: _54  and  _56
REMARK   24  A    between atoms: _56  and  _57
REMARK   25  A    between atoms: _59  and  _61
REMARK   26  A    between atoms: _61  and  _62
REMARK   27  A    between atoms: _65  and  _67
REMARK   28  A    between atoms: _67  and  _68
REMARK   29  A    between atoms: _67  and  _70
REMARK   30  A    between atoms: _70  and  _71
REMARK   31  A    between atoms: _74  and  _76
REMARK   32  A    between atoms: _76  and  _77
REMARK   33  A    between atoms: _76  and  _79
REMARK   34  A    between atoms: _79  and  _80
REMARK   35  A    between atoms: _85  and  _87
REMARK   36  A    between atoms: _87  and  _88
REMARK   37  A    between atoms: _87  and  _90
REMARK   38  A    between atoms: _90  and  _91
REMARK   39  A    between atoms: _94  and  _96
REMARK   40  A    between atoms: _96  and  _97
REMARK   41  A    between atoms: _96  and  _99
REMARK   42  A    between atoms: _102  and  _104
REMARK   43  A    between atoms: _104  and  _105
REMARK   44  A    between atoms: _104  and  _107
REMARK   45  A    between atoms: _107  and  _108
REMARK   46  A    between atoms: _108  and  _109
REMARK   47  A    between atoms: _109  and  _110
REMARK   48  A    between atoms: _110  and  _111
REMARK   49  A    between atoms: _115  and  _117
REMARK   50  A    between atoms: _117  and  _118
REMARK   51  A    between atoms: _117  and  _120
REMARK   52  A    between atoms: _120  and  _121
REMARK   53  A    between atoms: _124  and  _126
REMARK   54  A    between atoms: _126  and  _127
REMARK   55  A    between atoms: _129  and  _131
REMARK   56  A    between atoms: _131  and  _132
REMARK   57  A    between atoms: _134  and  _136
REMARK   58  A    between atoms: _136  and  _137
REMARK   59  A    between atoms: _136  and  _139
REMARK   60  A    between atoms: _139  and  _140
REMARK   61  A    between atoms: _143  and  _145
REMARK   62  A    between atoms: _145  and  _146
REMARK   63  A    between atoms: _148  and  _150
REMARK   64  A    between atoms: _150  and  _151
REMARK   65  A    between atoms: _153  and  _155
REMARK   66  A    between atoms: _155  and  _156
REMARK   67  A    between atoms: _155  and  _158
REMARK   68  A    between atoms: _158  and  _159
REMARK   69  A    between atoms: _162  and  _164
REMARK   70  A    between atoms: _164  and  _165
REMARK   71  A    between atoms: _164  and  _167
REMARK   72  A    between atoms: _167  and  _168
REMARK   73  A    between atoms: _172  and  _173
REMARK   74  A    between atoms: _178  and  _180
REMARK   75  A    between atoms: _180  and  _181
REMARK   76  A    between atoms: _180  and  _183
REMARK   77  A    between atoms: _183  and  _184
REMARK   78  A    between atoms: _188  and  _189
REMARK   79  A    between atoms: _194  and  _196
REMARK   80  A    between atoms: _196  and  _197
REMARK   81  A    between atoms: _196  and  _199
REMARK   82  A    between atoms: _202  and  _204
REMARK   83  A    between atoms: _204  and  _205
REMARK   84  A    between atoms: _204  and  _207
REMARK   85  A    between atoms: _207  and  _208
REMARK   86  A    between atoms: _213  and  _215
REMARK   87  A    between atoms: _215  and  _216
REMARK   88  A    between atoms: _215  and  _218
REMARK   89  A    between atoms: _218  and  _219
REMARK   90  A    between atoms: _222  and  _224
REMARK   91  A    between atoms: _224  and  _225
REMARK   92  A    between atoms: _224  and  _227
REMARK   93  A    between atoms: _227  and  _228
REMARK   94  A    between atoms: _231  and  _233
REMARK   95  A    between atoms: _233  and  _234
REMARK   96  A    between atoms: _236  and  _238
REMARK   97  A    between atoms: _238  and  _239
REMARK   98  A    between atoms: _238  and  _241
REMARK   99  A    between atoms: _241  and  _242
REMARK  100  A    between atoms: _242  and  _243
REMARK  101  A    between atoms: _243  and  _244
REMARK  102  A    between atoms: _253  and  _255
REMARK  103  A    between atoms: _255  and  _256
REMARK  104  A    between atoms: _255  and  _258
REMARK  105  A    between atoms: _258  and  _259
REMARK  106  A    between atoms: _264  and  _266
REMARK  107  A    between atoms: _266  and  _267
REMARK  108  A    between atoms: _266  and  _269
REMARK  109  A    between atoms: _269  and  _270
REMARK  110  A    between atoms: _270  and  _271
REMARK  111  A    between atoms: _271  and  _272
REMARK  112  A    between atoms: _281  and  _283
REMARK  113  A    between atoms: _283  and  _284
REMARK  114  A    between atoms: _283  and  _286
REMARK  115  A    between atoms: _286  and  _287
REMARK  116  A    between atoms: _290  and  _292
REMARK  117  A    between atoms: _292  and  _293
REMARK  118  A    between atoms: _292  and  _295
REMARK  119  A    between atoms: _295  and  _296
REMARK  120  A    between atoms: _299  and  _301
REMARK  121  A    between atoms: _301  and  _302
REMARK  122  A    between atoms: _301  and  _304
REMARK  123  A    between atoms: _304  and  _305
REMARK  124  A    between atoms: _308  and  _310
REMARK  125  A    between atoms: _310  and  _311
REMARK  126  A    between atoms: _310  and  _313
REMARK  127  A    between atoms: _313  and  _314
REMARK  128  A    between atoms: _317  and  _319
REMARK  129  A    between atoms: _319  and  _320
REMARK  130  A    between atoms: _319  and  _322
REMARK  131  A    between atoms: _322  and  _323
REMARK  132  A    between atoms: _326  and  _328
REMARK  133  A    between atoms: _328  and  _329
REMARK  134  A    between atoms: _331  and  _333
REMARK  135  A    between atoms: _333  and  _334
REMARK  136  A    between atoms: _337  and  _339
REMARK  137  A    between atoms: _339  and  _340
REMARK  138  A    between atoms: _339  and  _342
REMARK  139  A    between atoms: _342  and  _343
REMARK  140  A    between atoms: _346  and  _348
REMARK  141  A    between atoms: _348  and  _349
REMARK  142  A    between atoms: _348  and  _351
REMARK  143  A    between atoms: _351  and  _352
REMARK  144  A    between atoms: _357  and  _359
REMARK  145  A    between atoms: _359  and  _360
REMARK  146  A    between atoms: _359  and  _362
REMARK  147  A    between atoms: _362  and  _363
REMARK  148  A    between atoms: _366  and  _368
REMARK  149  A    between atoms: _368  and  _369
REMARK  150  A    between atoms: _368  and  _371
REMARK  151  A    between atoms: _374  and  _376
REMARK  152  A    between atoms: _376  and  _377
REMARK  153  A    between atoms: _376  and  _379
REMARK  154  A    between atoms: _379  and  _380
REMARK  155  A    between atoms: _380  and  _381
REMARK  156  A    between atoms: _381  and  _382
REMARK  157  A    between atoms: _382  and  _383
REMARK  158  A    between atoms: _387  and  _389
REMARK  159  A    between atoms: _389  and  _390
REMARK  160  A    between atoms: _389  and  _392
REMARK  161  A    between atoms: _392  and  _393
REMARK  162  A    between atoms: _393  and  _394
REMARK  163  A    between atoms: _396  and  _398
REMARK  164  A    between atoms: _398  and  _399
REMARK  165  A    between atoms: _398  and  _401
REMARK  166  A    between atoms: _401  and  _402
REMARK  167  A    between atoms: _405  and  _407
REMARK  168  A    between atoms: _407  and  _408
REMARK  169  A    between atoms: _410  and  _412
REMARK  170  A    between atoms: _412  and  _413
REMARK  171  A    between atoms: _415  and  _417
REMARK  172  A    between atoms: _417  and  _418
REMARK  173  A    between atoms: _417  and  _420
REMARK  174  A    between atoms: _420  and  _421
REMARK  175  A    between atoms: _424  and  _426
REMARK  176  A    between atoms: _426  and  _427
REMARK  177  A    between atoms: _429  and  _431
REMARK  178  A    between atoms: _431  and  _432
REMARK  179  A    between atoms: _434  and  _436
REMARK  180  A    between atoms: _436  and  _437
REMARK  181  A    between atoms: _436  and  _439
REMARK  182  A    between atoms: _439  and  _440
REMARK  183  A    between atoms: _446  and  _448
REMARK  184  A    between atoms: _448  and  _449
REMARK  185  A    between atoms: _448  and  _451
REMARK  186  A    between atoms: _451  and  _452
REMARK  187  A    between atoms: _455  and  _457
REMARK  188  A    between atoms: _457  and  _458
REMARK  189  A    between atoms: _457  and  _460
REMARK  190  A    between atoms: _463  and  _465
REMARK  191  A    between atoms: _465  and  _466
REMARK  192  A    between atoms: _465  and  _468
REMARK  193  A    between atoms: _468  and  _469
REMARK  194  A    between atoms: _472  and  _474
REMARK  195  A    between atoms: _474  and  _475
REMARK  196  A    between atoms: _474  and  _477
REMARK  197  A    between atoms: _477  and  _478
REMARK  198  A    between atoms: _482  and  _483
REMARK  199  A    between atoms: _488  and  _490
REMARK  200  A    between atoms: _490  and  _491
REMARK  201  A    between atoms: _490  and  _493
REMARK  202  A    between atoms: _496  and  _498
REMARK  203  A    between atoms: _498  and  _499
REMARK  204  A    between atoms: _498  and  _501
REMARK  205  A    between atoms: _501  and  _502
REMARK  206  A    between atoms: _507  and  _509
REMARK  207  A    between atoms: _509  and  _510
REMARK  208  A    between atoms: _509  and  _512
REMARK  209  A    between atoms: _512  and  _513
REMARK  210  A    between atoms: _516  and  _518
REMARK  211  A    between atoms: _518  and  _519
REMARK  212  A    between atoms: _518  and  _521
REMARK  213  A    between atoms: _521  and  _522
REMARK  214  A    between atoms: _525  and  _527
REMARK  215  A    between atoms: _527  and  _528
REMARK  216  A    between atoms: _530  and  _532
REMARK  217  A    between atoms: _532  and  _533
REMARK  218  A    between atoms: _532  and  _535
REMARK  219  A    between atoms: _535  and  _536
REMARK  220  A    between atoms: _536  and  _537
REMARK  221  A    between atoms: _537  and  _538
REMARK  222  A    between atoms: _547  and  _549
REMARK  223  A    between atoms: _549  and  _550
REMARK  224  A    between atoms: _549  and  _552
REMARK  225  A    between atoms: _552  and  _553
REMARK                            x       y       z     vdW  Elec       q    Type
REMARK                         _______ _______ _______ _____ _____    ______ ____
ROOT
ATOM      1  O   HOH     1     -15.049  65.821   0.477  0.00  0.00    +0.000 OA
ENDROOT
TORSDOF 0
REMARK  Name = ../refined-set-2016/2q63/2q63_pocket.pdb
REMARK  225 active torsions:
REMARK  status: ('A' for Active; 'I' for Inactive)
REMARK    1  A    between atoms: _1  and  _3
REMARK    2  A    between atoms: _3  and  _4
REMARK    3  A    between atoms: _3  and  _6
REMARK    4  A    between atoms: _6  and  _7
REMARK    5  A    between atoms: _7  and  _8
REMARK    6  A    between atoms: _8  and  _9
REMARK    7  A    between atoms: _18  and  _20
REMARK    8  A    between atoms: _20  and  _21
REMARK    9  A    between atoms: _20  and  _23
REMARK   10  A    between atoms: _23  and  _24
REMARK   11  A    between atoms: _27  and  _29
REMARK   12  A    between atoms: _29  and  _30
REMARK   13  A    between atoms: _29  and  _32
REMARK   14  A    between atoms: _32  and  _33
REMARK   15  A    between atoms: _36  and  _38
REMARK   16  A    between atoms: _38  and  _39
REMARK   17  A    between atoms: _38  and  _41
REMARK   18  A    between atoms: _41  and  _42
REMARK   19  A    between atoms: _45  and  _47
REMARK   20  A    between atoms: _47  and  _48
REMARK   21  A    between atoms: _47  and  _50
REMARK   22  A    between atoms: _50  and  _51
REMARK   23  A    between atoms: _54  and  _56
REMARK   24  A    between atoms: _56  and  _57
REMARK   25  A    between atoms: _59  and  _61
REMARK   26  A    between atoms: _61  and  _62
REMARK   27  A    between atoms: _65  and  _67
REMARK   28  A    between atoms: _67  and  _68
REMARK   29  A    between atoms: _67  and  _70
REMARK   30  A    between atoms: _70  and  _71
REMARK   31  A    between atoms: _74  and  _76
REMARK   32  A    between atoms: _76  and  _77
REMARK   33  A    between atoms: _76  and  _79
REMARK   34  A    between atoms: _79  and  _80
REMARK   35  A    between atoms: _85  and  _87
REMARK   36  A    between atoms: _87  and  _88
REMARK   37  A    between atoms: _87  and  _90
REMARK   38  A    between atoms: _90  and  _91
REMARK   39  A    between atoms: _94  and  _96
REMARK   40  A    between atoms: _96  and  _97
REMARK   41  A    between atoms: _96  and  _99
REMARK   42  A    between atoms: _102  and  _104
REMARK   43  A    between atoms: _104  and  _105
REMARK   44  A    between atoms: _104  and  _107
REMARK   45  A    between atoms: _107  and  _108
REMARK   46  A    between atoms: _108  and  _109
REMARK   47  A    between atoms: _109  and  _110
REMARK   48  A    between atoms: _110  and  _111
REMARK   49  A    between atoms: _115  and  _117
REMARK   50  A    between atoms: _117  and  _118
REMARK   51  A    between atoms: _117  and  _120
REMARK   52  A    between atoms: _120  and  _121
REMARK   53  A    between atoms: _124  and  _126
REMARK   54  A    between atoms: _126  and  _127
REMARK   55  A    between atoms: _129  and  _131
REMARK   56  A    between atoms: _131  and  _132
REMARK   57  A    between atoms: _134  and  _136
REMARK   58  A    between atoms: _136  and  _137
REMARK   59  A    between atoms: _136  and  _139
REMARK   60  A    between atoms: _139  and  _140
REMARK   61  A    between atoms: _143  and  _145
REMARK   62  A    between atoms: _145  and  _146
REMARK   63  A    between atoms: _148  and  _150
REMARK   64  A    between atoms: _150  and  _151
REMARK   65  A    between atoms: _153  and  _155
REMARK   66  A    between atoms: _155  and  _156
REMARK   67  A    between atoms: _155  and  _158
REMARK   68  A    between atoms: _158  and  _159
REMARK   69  A    between atoms: _162  and  _164
REMARK   70  A    between atoms: _164  and  _165
REMARK   71  A    between atoms: _164  and  _167
REMARK   72  A    between atoms: _167  and  _168
REMARK   73  A    between atoms: _172  and  _173
REMARK   74  A    between atoms: _178  and  _180
REMARK   75  A    between atoms: _180  and  _181
REMARK   76  A    between atoms: _180  and  _183
REMARK   77  A    between atoms: _183  and  _184
REMARK   78  A    between atoms: _188  and  _189
REMARK   79  A    between atoms: _194  and  _196
REMARK   80  A    between atoms: _196  and  _197
REMARK   81  A    between atoms: _196  and  _199
REMARK   82  A    between atoms: _202  and  _204
REMARK   83  A    between atoms: _204  and  _205
REMARK   84  A    between atoms: _204  and  _207
REMARK   85  A    between atoms: _207  and  _208
REMARK   86  A    between atoms: _213  and  _215
REMARK   87  A    between atoms: _215  and  _216
REMARK   88  A    between atoms: _215  and  _218
REMARK   89  A    between atoms: _218  and  _219
REMARK   90  A    between atoms: _222  and  _224
REMARK   91  A    between atoms: _224  and  _225
REMARK   92  A    between atoms: _224  and  _227
REMARK   93  A    between atoms: _227  and  _228
REMARK   94  A    between atoms: _231  and  _233
REMARK   95  A    between atoms: _233  and  _234
REMARK   96  A    between atoms: _236  and  _238
REMARK   97  A    between atoms: _238  and  _239
REMARK   98  A    between atoms: _238  and  _241
REMARK   99  A    between atoms: _241  and  _242
REMARK  100  A    between atoms: _242  and  _243
REMARK  101  A    between atoms: _243  and  _244
REMARK  102  A    between atoms: _253  and  _255
REMARK  103  A    between atoms: _255  and  _256
REMARK  104  A    between atoms: _255  and  _258
REMARK  105  A    between atoms: _258  and  _259
REMARK  106  A    between atoms: _264  and  _266
REMARK  107  A    between atoms: _266  and  _267
REMARK  108  A    between atoms: _266  and  _269
REMARK  109  A    between atoms: _269  and  _270
REMARK  110  A    between atoms: _270  and  _271
REMARK  111  A    between atoms: _271  and  _272
REMARK  112  A    between atoms: _281  and  _283
REMARK  113  A    between atoms: _283  and  _284
REMARK  114  A    between atoms: _283  and  _286
REMARK  115  A    between atoms: _286  and  _287
REMARK  116  A    between atoms: _290  and  _292
REMARK  117  A    between atoms: _292  and  _293
REMARK  118  A    between atoms: _292  and  _295
REMARK  119  A    between atoms: _295  and  _296
REMARK  120  A    between atoms: _299  and  _301
REMARK  121  A    between atoms: _301  and  _302
REMARK  122  A    between atoms: _301  and  _304
REMARK  123  A    between atoms: _304  and  _305
REMARK  124  A    between atoms: _308  and  _310
REMARK  125  A    between atoms: _310  and  _311
REMARK  126  A    between atoms: _310  and  _313
REMARK  127  A    between atoms: _313  and  _314
REMARK  128  A    between atoms: _317  and  _319
REMARK  129  A    between atoms: _319  and  _320
REMARK  130  A    between atoms: _319  and  _322
REMARK  131  A    between atoms: _322  and  _323
REMARK  132  A    between atoms: _326  and  _328
REMARK  133  A    between atoms: _328  and  _329
REMARK  134  A    between atoms: _331  and  _333
REMARK  135  A    between atoms: _333  and  _334
REMARK  136  A    between atoms: _337  and  _339
REMARK  137  A    between atoms: _339  and  _340
REMARK  138  A    between atoms: _339  and  _342
REMARK  139  A    between atoms: _342  and  _343
REMARK  140  A    between atoms: _346  and  _348
REMARK  141  A    between atoms: _348  and  _349
REMARK  142  A    between atoms: _348  and  _351
REMARK  143  A    between atoms: _351  and  _352
REMARK  144  A    between atoms: _357  and  _359
REMARK  145  A    between atoms: _359  and  _360
REMARK  146  A    between atoms: _359  and  _362
REMARK  147  A    between atoms: _362  and  _363
REMARK  148  A    between atoms: _366  and  _368
REMARK  149  A    between atoms: _368  and  _369
REMARK  150  A    between atoms: _368  and  _371
REMARK  151  A    between atoms: _374  and  _376
REMARK  152  A    between atoms: _376  and  _377
REMARK  153  A    between atoms: _376  and  _379
REMARK  154  A    between atoms: _379  and  _380
REMARK  155  A    between atoms: _380  and  _381
REMARK  156  A    between atoms: _381  and  _382
REMARK  157  A    between atoms: _382  and  _383
REMARK  158  A    between atoms: _387  and  _389
REMARK  159  A    between atoms: _389  and  _390
REMARK  160  A    between atoms: _389  and  _392
REMARK  161  A    between atoms: _392  and  _393
REMARK  162  A    between atoms: _393  and  _394
REMARK  163  A    between atoms: _396  and  _398
REMARK  164  A    between atoms: _398  and  _399
REMARK  165  A    between atoms: _398  and  _401
REMARK  166  A    between atoms: _401  and  _402
REMARK  167  A    between atoms: _405  and  _407
REMARK  168  A    between atoms: _407  and  _408
REMARK  169  A    between atoms: _410  and  _412
REMARK  170  A    between atoms: _412  and  _413
REMARK  171  A    between atoms: _415  and  _417
REMARK  172  A    between atoms: _417  and  _418
REMARK  173  A    between atoms: _417  and  _420
REMARK  174  A    between atoms: _420  and  _421
REMARK  175  A    between atoms: _424  and  _426
REMARK  176  A    between atoms: _426  and  _427
REMARK  177  A    between atoms: _429  and  _431
REMARK  178  A    between atoms: _431  and  _432
REMARK  179  A    between atoms: _434  and  _436
REMARK  180  A    between atoms: _436  and  _437
REMARK  181  A    between atoms: _436  and  _439
REMARK  182  A    between atoms: _439  and  _440
REMARK  183  A    between atoms: _446  and  _448
REMARK  184  A    between atoms: _448  and  _449
REMARK  185  A    between atoms: _448  and  _451
REMARK  186  A    between atoms: _451  and  _452
REMARK  187  A    between atoms: _455  and  _457
REMARK  188  A    between atoms: _457  and  _458
REMARK  189  A    between atoms: _457  and  _460
REMARK  190  A    between atoms: _463  and  _465
REMARK  191  A    between atoms: _465  and  _466
REMARK  192  A    between atoms: _465  and  _468
REMARK  193  A    between atoms: _468  and  _469
REMARK  194  A    between atoms: _472  and  _474
REMARK  195  A    between atoms: _474  and  _475
REMARK  196  A    between atoms: _474  and  _477
REMARK  197  A    between atoms: _477  and  _478
REMARK  198  A    between atoms: _482  and  _483
REMARK  199  A    between atoms: _488  and  _490
REMARK  200  A    between atoms: _490  and  _491
REMARK  201  A    between atoms: _490  and  _493
REMARK  202  A    between atoms: _496  and  _498
REMARK  203  A    between atoms: _498  and  _499
REMARK  204  A    between atoms: _498  and  _501
REMARK  205  A    between atoms: _501  and  _502
REMARK  206  A    between atoms: _507  and  _509
REMARK  207  A    between atoms: _509  and  _510
REMARK  208  A    between atoms: _509  and  _512
REMARK  209  A    between atoms: _512  and  _513
REMARK  210  A    between atoms: _516  and  _518
REMARK  211  A    between atoms: _518  and  _519
REMARK  212  A    between atoms: _518  and  _521
REMARK  213  A    between atoms: _521  and  _522
REMARK  214  A    between atoms: _525  and  _527
REMARK  215  A    between atoms: _527  and  _528
REMARK  216  A    between atoms: _530  and  _532
REMARK  217  A    between atoms: _532  and  _533
REMARK  218  A    between atoms: _532  and  _535
REMARK  219  A    between atoms: _535  and  _536
REMARK  220  A    between atoms: _536  and  _537
REMARK  221  A    between atoms: _537  and  _538
REMARK  222  A    between atoms: _547  and  _549
REMARK  223  A    between atoms: _549  and  _550
REMARK  224  A    between atoms: _549  and  _552
REMARK  225  A    between atoms: _552  and  _553
REMARK                            x       y       z     vdW  Elec       q    Type
REMARK                         _______ _______ _______ _____ _____    ______ ____
ROOT
ATOM      1  O   HOH     1     -12.376  53.063 -11.247  0.00  0.00    +0.000 OA
ENDROOT
TORSDOF 0
REMARK  Name = ../refined-set-2016/2q63/2q63_pocket.pdb
REMARK  225 active torsions:
REMARK  status: ('A' for Active; 'I' for Inactive)
REMARK    1  A    between atoms: _1  and  _3
REMARK    2  A    between atoms: _3  and  _4
REMARK    3  A    between atoms: _3  and  _6
REMARK    4  A    between atoms: _6  and  _7
REMARK    5  A    between atoms: _7  and  _8
REMARK    6  A    between atoms: _8  and  _9
REMARK    7  A    between atoms: _18  and  _20
REMARK    8  A    between atoms: _20  and  _21
REMARK    9  A    between atoms: _20  and  _23
REMARK   10  A    between atoms: _23  and  _24
REMARK   11  A    between atoms: _27  and  _29
REMARK   12  A    between atoms: _29  and  _30
REMARK   13  A    between atoms: _29  and  _32
REMARK   14  A    between atoms: _32  and  _33
REMARK   15  A    between atoms: _36  and  _38
REMARK   16  A    between atoms: _38  and  _39
REMARK   17  A    between atoms: _38  and  _41
REMARK   18  A    between atoms: _41  and  _42
REMARK   19  A    between atoms: _45  and  _47
REMARK   20  A    between atoms: _47  and  _48
REMARK   21  A    between atoms: _47  and  _50
REMARK   22  A    between atoms: _50  and  _51
REMARK   23  A    between atoms: _54  and  _56
REMARK   24  A    between atoms: _56  and  _57
REMARK   25  A    between atoms: _59  and  _61
REMARK   26  A    between atoms: _61  and  _62
REMARK   27  A    between atoms: _65  and  _67
REMARK   28  A    between atoms: _67  and  _68
REMARK   29  A    between atoms: _67  and  _70
REMARK   30  A    between atoms: _70  and  _71
REMARK   31  A    between atoms: _74  and  _76
REMARK   32  A    between atoms: _76  and  _77
REMARK   33  A    between atoms: _76  and  _79
REMARK   34  A    between atoms: _79  and  _80
REMARK   35  A    between atoms: _85  and  _87
REMARK   36  A    between atoms: _87  and  _88
REMARK   37  A    between atoms: _87  and  _90
REMARK   38  A    between atoms: _90  and  _91
REMARK   39  A    between atoms: _94  and  _96
REMARK   40  A    between atoms: _96  and  _97
REMARK   41  A    between atoms: _96  and  _99
REMARK   42  A    between atoms: _102  and  _104
REMARK   43  A    between atoms: _104  and  _105
REMARK   44  A    between atoms: _104  and  _107
REMARK   45  A    between atoms: _107  and  _108
REMARK   46  A    between atoms: _108  and  _109
REMARK   47  A    between atoms: _109  and  _110
REMARK   48  A    between atoms: _110  and  _111
REMARK   49  A    between atoms: _115  and  _117
REMARK   50  A    between atoms: _117  and  _118
REMARK   51  A    between atoms: _117  and  _120
REMARK   52  A    between atoms: _120  and  _121
REMARK   53  A    between atoms: _124  and  _126
REMARK   54  A    between atoms: _126  and  _127
REMARK   55  A    between atoms: _129  and  _131
REMARK   56  A    between atoms: _131  and  _132
REMARK   57  A    between atoms: _134  and  _136
REMARK   58  A    between atoms: _136  and  _137
REMARK   59  A    between atoms: _136  and  _139
REMARK   60  A    between atoms: _139  and  _140
REMARK   61  A    between atoms: _143  and  _145
REMARK   62  A    between atoms: _145  and  _146
REMARK   63  A    between atoms: _148  and  _150
REMARK   64  A    between atoms: _150  and  _151
REMARK   65  A    between atoms: _153  and  _155
REMARK   66  A    between atoms: _155  and  _156
REMARK   67  A    between atoms: _155  and  _158
REMARK   68  A    between atoms: _158  and  _159
REMARK   69  A    between atoms: _162  and  _164
REMARK   70  A    between atoms: _164  and  _165
REMARK   71  A    between atoms: _164  and  _167
REMARK   72  A    between atoms: _167  and  _168
REMARK   73  A    between atoms: _172  and  _173
REMARK   74  A    between atoms: _178  and  _180
REMARK   75  A    between atoms: _180  and  _181
REMARK   76  A    between atoms: _180  and  _183
REMARK   77  A    between atoms: _183  and  _184
REMARK   78  A    between atoms: _188  and  _189
REMARK   79  A    between atoms: _194  and  _196
REMARK   80  A    between atoms: _196  and  _197
REMARK   81  A    between atoms: _196  and  _199
REMARK   82  A    between atoms: _202  and  _204
REMARK   83  A    between atoms: _204  and  _205
REMARK   84  A    between atoms: _204  and  _207
REMARK   85  A    between atoms: _207  and  _208
REMARK   86  A    between atoms: _213  and  _215
REMARK   87  A    between atoms: _215  and  _216
REMARK   88  A    between atoms: _215  and  _218
REMARK   89  A    between atoms: _218  and  _219
REMARK   90  A    between atoms: _222  and  _224
REMARK   91  A    between atoms: _224  and  _225
REMARK   92  A    between atoms: _224  and  _227
REMARK   93  A    between atoms: _227  and  _228
REMARK   94  A    between atoms: _231  and  _233
REMARK   95  A    between atoms: _233  and  _234
REMARK   96  A    between atoms: _236  and  _238
REMARK   97  A    between atoms: _238  and  _239
REMARK   98  A    between atoms: _238  and  _241
REMARK   99  A    between atoms: _241  and  _242
REMARK  100  A    between atoms: _242  and  _243
REMARK  101  A    between atoms: _243  and  _244
REMARK  102  A    between atoms: _253  and  _255
REMARK  103  A    between atoms: _255  and  _256
REMARK  104  A    between atoms: _255  and  _258
REMARK  105  A    between atoms: _258  and  _259
REMARK  106  A    between atoms: _264  and  _266
REMARK  107  A    between atoms: _266  and  _267
REMARK  108  A    between atoms: _266  and  _269
REMARK  109  A    between atoms: _269  and  _270
REMARK  110  A    between atoms: _270  and  _271
REMARK  111  A    between atoms: _271  and  _272
REMARK  112  A    between atoms: _281  and  _283
REMARK  113  A    between atoms: _283  and  _284
REMARK  114  A    between atoms: _283  and  _286
REMARK  115  A    between atoms: _286  and  _287
REMARK  116  A    between atoms: _290  and  _292
REMARK  117  A    between atoms: _292  and  _293
REMARK  118  A    between atoms: _292  and  _295
REMARK  119  A    between atoms: _295  and  _296
REMARK  120  A    between atoms: _299  and  _301
REMARK  121  A    between atoms: _301  and  _302
REMARK  122  A    between atoms: _301  and  _304
REMARK  123  A    between atoms: _304  and  _305
REMARK  124  A    between atoms: _308  and  _310
REMARK  125  A    between atoms: _310  and  _311
REMARK  126  A    between atoms: _310  and  _313
REMARK  127  A    between atoms: _313  and  _314
REMARK  128  A    between atoms: _317  and  _319
REMARK  129  A    between atoms: _319  and  _320
REMARK  130  A    between atoms: _319  and  _322
REMARK  131  A    between atoms: _322  and  _323
REMARK  132  A    between atoms: _326  and  _328
REMARK  133  A    between atoms: _328  and  _329
REMARK  134  A    between atoms: _331  and  _333
REMARK  135  A    between atoms: _333  and  _334
REMARK  136  A    between atoms: _337  and  _339
REMARK  137  A    between atoms: _339  and  _340
REMARK  138  A    between atoms: _339  and  _342
REMARK  139  A    between atoms: _342  and  _343
REMARK  140  A    between atoms: _346  and  _348
REMARK  141  A    between atoms: _348  and  _349
REMARK  142  A    between atoms: _348  and  _351
REMARK  143  A    between atoms: _351  and  _352
REMARK  144  A    between atoms: _357  and  _359
REMARK  145  A    between atoms: _359  and  _360
REMARK  146  A    between atoms: _359  and  _362
REMARK  147  A    between atoms: _362  and  _363
REMARK  148  A    between atoms: _366  and  _368
REMARK  149  A    between atoms: _368  and  _369
REMARK  150  A    between atoms: _368  and  _371
REMARK  151  A    between atoms: _374  and  _376
REMARK  152  A    between atoms: _376  and  _377
REMARK  153  A    between atoms: _376  and  _379
REMARK  154  A    between atoms: _379  and  _380
REMARK  155  A    between atoms: _380  and  _381
REMARK  156  A    between atoms: _381  and  _382
REMARK  157  A    between atoms: _382  and  _383
REMARK  158  A    between atoms: _387  and  _389
REMARK  159  A    between atoms: _389  and  _390
REMARK  160  A    between atoms: _389  and  _392
REMARK  161  A    between atoms: _392  and  _393
REMARK  162  A    between atoms: _393  and  _394
REMARK  163  A    between atoms: _396  and  _398
REMARK  164  A    between atoms: _398  and  _399
REMARK  165  A    between atoms: _398  and  _401
REMARK  166  A    between atoms: _401  and  _402
REMARK  167  A    between atoms: _405  and  _407
REMARK  168  A    between atoms: _407  and  _408
REMARK  169  A    between atoms: _410  and  _412
REMARK  170  A    between atoms: _412  and  _413
REMARK  171  A    between atoms: _415  and  _417
REMARK  172  A    between atoms: _417  and  _418
REMARK  173  A    between atoms: _417  and  _420
REMARK  174  A    between atoms: _420  and  _421
REMARK  175  A    between atoms: _424  and  _426
REMARK  176  A    between atoms: _426  and  _427
REMARK  177  A    between atoms: _429  and  _431
REMARK  178  A    between atoms: _431  and  _432
REMARK  179  A    between atoms: _434  and  _436
REMARK  180  A    between atoms: _436  and  _437
REMARK  181  A    between atoms: _436  and  _439
REMARK  182  A    between atoms: _439  and  _440
REMARK  183  A    between atoms: _446  and  _448
REMARK  184  A    between atoms: _448  and  _449
REMARK  185  A    between atoms: _448  and  _451
REMARK  186  A    between atoms: _451  and  _452
REMARK  187  A    between atoms: _455  and  _457
REMARK  188  A    between atoms: _457  and  _458
REMARK  189  A    between atoms: _457  and  _460
REMARK  190  A    between atoms: _463  and  _465
REMARK  191  A    between atoms: _465  and  _466
REMARK  192  A    between atoms: _465  and  _468
REMARK  193  A    between atoms: _468  and  _469
REMARK  194  A    between atoms: _472  and  _474
REMARK  195  A    between atoms: _474  and  _475
REMARK  196  A    between atoms: _474  and  _477
REMARK  197  A    between atoms: _477  and  _478
REMARK  198  A    between atoms: _482  and  _483
REMARK  199  A    between atoms: _488  and  _490
REMARK  200  A    between atoms: _490  and  _491
REMARK  201  A    between atoms: _490  and  _493
REMARK  202  A    between atoms: _496  and  _498
REMARK  203  A    between atoms: _498  and  _499
REMARK  204  A    between atoms: _498  and  _501
REMARK  205  A    between atoms: _501  and  _502
REMARK  206  A    between atoms: _507  and  _509
REMARK  207  A    between atoms: _509  and  _510
REMARK  208  A    between atoms: _509  and  _512
REMARK  209  A    between atoms: _512  and  _513
REMARK  210  A    between atoms: _516  and  _518
REMARK  211  A    between atoms: _518  and  _519
REMARK  212  A    between atoms: _518  and  _521
REMARK  213  A    between atoms: _521  and  _522
REMARK  214  A    between atoms: _525  and  _527
REMARK  215  A    between atoms: _527  and  _528
REMARK  216  A    between atoms: _530  and  _532
REMARK  217  A    between atoms: _532  and  _533
REMARK  218  A    between atoms: _532  and  _535
REMARK  219  A    between atoms: _535  and  _536
REMARK  220  A    between atoms: _536  and  _537
REMARK  221  A    between atoms: _537  and  _538
REMARK  222  A    between atoms: _547  and  _549
REMARK  223  A    between atoms: _549  and  _550
REMARK  224  A    between atoms: _549  and  _552
REMARK  225  A    between atoms: _552  and  _553
REMARK                            x       y       z     vdW  Elec       q    Type
REMARK                         _______ _______ _______ _____ _____    ______ ____
ROOT
ATOM      1  O   HOH     1     -13.827  67.299   4.585  0.00  0.00    +0.000 OA
ENDROOT
TORSDOF 0
REMARK  Name = ../refined-set-2016/2q63/2q63_pocket.pdb
REMARK  225 active torsions:
REMARK  status: ('A' for Active; 'I' for Inactive)
REMARK    1  A    between atoms: _1  and  _3
REMARK    2  A    between atoms: _3  and  _4
REMARK    3  A    between atoms: _3  and  _6
REMARK    4  A    between atoms: _6  and  _7
REMARK    5  A    between atoms: _7  and  _8
REMARK    6  A    between atoms: _8  and  _9
REMARK    7  A    between atoms: _18  and  _20
REMARK    8  A    between atoms: _20  and  _21
REMARK    9  A    between atoms: _20  and  _23
REMARK   10  A    between atoms: _23  and  _24
REMARK   11  A    between atoms: _27  and  _29
REMARK   12  A    between atoms: _29  and  _30
REMARK   13  A    between atoms: _29  and  _32
REMARK   14  A    between atoms: _32  and  _33
REMARK   15  A    between atoms: _36  and  _38
REMARK   16  A    between atoms: _38  and  _39
REMARK   17  A    between atoms: _38  and  _41
REMARK   18  A    between atoms: _41  and  _42
REMARK   19  A    between atoms: _45  and  _47
REMARK   20  A    between atoms: _47  and  _48
REMARK   21  A    between atoms: _47  and  _50
REMARK   22  A    between atoms: _50  and  _51
REMARK   23  A    between atoms: _54  and  _56
REMARK   24  A    between atoms: _56  and  _57
REMARK   25  A    between atoms: _59  and  _61
REMARK   26  A    between atoms: _61  and  _62
REMARK   27  A    between atoms: _65  and  _67
REMARK   28  A    between atoms: _67  and  _68
REMARK   29  A    between atoms: _67  and  _70
REMARK   30  A    between atoms: _70  and  _71
REMARK   31  A    between atoms: _74  and  _76
REMARK   32  A    between atoms: _76  and  _77
REMARK   33  A    between atoms: _76  and  _79
REMARK   34  A    between atoms: _79  and  _80
REMARK   35  A    between atoms: _85  and  _87
REMARK   36  A    between atoms: _87  and  _88
REMARK   37  A    between atoms: _87  and  _90
REMARK   38  A    between atoms: _90  and  _91
REMARK   39  A    between atoms: _94  and  _96
REMARK   40  A    between atoms: _96  and  _97
REMARK   41  A    between atoms: _96  and  _99
REMARK   42  A    between atoms: _102  and  _104
REMARK   43  A    between atoms: _104  and  _105
REMARK   44  A    between atoms: _104  and  _107
REMARK   45  A    between atoms: _107  and  _108
REMARK   46  A    between atoms: _108  and  _109
REMARK   47  A    between atoms: _109  and  _110
REMARK   48  A    between atoms: _110  and  _111
REMARK   49  A    between atoms: _115  and  _117
REMARK   50  A    between atoms: _117  and  _118
REMARK   51  A    between atoms: _117  and  _120
REMARK   52  A    between atoms: _120  and  _121
REMARK   53  A    between atoms: _124  and  _126
REMARK   54  A    between atoms: _126  and  _127
REMARK   55  A    between atoms: _129  and  _131
REMARK   56  A    between atoms: _131  and  _132
REMARK   57  A    between atoms: _134  and  _136
REMARK   58  A    between atoms: _136  and  _137
REMARK   59  A    between atoms: _136  and  _139
REMARK   60  A    between atoms: _139  and  _140
REMARK   61  A    between atoms: _143  and  _145
REMARK   62  A    between atoms: _145  and  _146
REMARK   63  A    between atoms: _148  and  _150
REMARK   64  A    between atoms: _150  and  _151
REMARK   65  A    between atoms: _153  and  _155
REMARK   66  A    between atoms: _155  and  _156
REMARK   67  A    between atoms: _155  and  _158
REMARK   68  A    between atoms: _158  and  _159
REMARK   69  A    between atoms: _162  and  _164
REMARK   70  A    between atoms: _164  and  _165
REMARK   71  A    between atoms: _164  and  _167
REMARK   72  A    between atoms: _167  and  _168
REMARK   73  A    between atoms: _172  and  _173
REMARK   74  A    between atoms: _178  and  _180
REMARK   75  A    between atoms: _180  and  _181
REMARK   76  A    between atoms: _180  and  _183
REMARK   77  A    between atoms: _183  and  _184
REMARK   78  A    between atoms: _188  and  _189
REMARK   79  A    between atoms: _194  and  _196
REMARK   80  A    between atoms: _196  and  _197
REMARK   81  A    between atoms: _196  and  _199
REMARK   82  A    between atoms: _202  and  _204
REMARK   83  A    between atoms: _204  and  _205
REMARK   84  A    between atoms: _204  and  _207
REMARK   85  A    between atoms: _207  and  _208
REMARK   86  A    between atoms: _213  and  _215
REMARK   87  A    between atoms: _215  and  _216
REMARK   88  A    between atoms: _215  and  _218
REMARK   89  A    between atoms: _218  and  _219
REMARK   90  A    between atoms: _222  and  _224
REMARK   91  A    between atoms: _224  and  _225
REMARK   92  A    between atoms: _224  and  _227
REMARK   93  A    between atoms: _227  and  _228
REMARK   94  A    between atoms: _231  and  _233
REMARK   95  A    between atoms: _233  and  _234
REMARK   96  A    between atoms: _236  and  _238
REMARK   97  A    between atoms: _238  and  _239
REMARK   98  A    between atoms: _238  and  _241
REMARK   99  A    between atoms: _241  and  _242
REMARK  100  A    between atoms: _242  and  _243
REMARK  101  A    between atoms: _243  and  _244
REMARK  102  A    between atoms: _253  and  _255
REMARK  103  A    between atoms: _255  and  _256
REMARK  104  A    between atoms: _255  and  _258
REMARK  105  A    between atoms: _258  and  _259
REMARK  106  A    between atoms: _264  and  _266
REMARK  107  A    between atoms: _266  and  _267
REMARK  108  A    between atoms: _266  and  _269
REMARK  109  A    between atoms: _269  and  _270
REMARK  110  A    between atoms: _270  and  _271
REMARK  111  A    between atoms: _271  and  _272
REMARK  112  A    between atoms: _281  and  _283
REMARK  113  A    between atoms: _283  and  _284
REMARK  114  A    between atoms: _283  and  _286
REMARK  115  A    between atoms: _286  and  _287
REMARK  116  A    between atoms: _290  and  _292
REMARK  117  A    between atoms: _292  and  _293
REMARK  118  A    between atoms: _292  and  _295
REMARK  119  A    between atoms: _295  and  _296
REMARK  120  A    between atoms: _299  and  _301
REMARK  121  A    between atoms: _301  and  _302
REMARK  122  A    between atoms: _301  and  _304
REMARK  123  A    between atoms: _304  and  _305
REMARK  124  A    between atoms: _308  and  _310
REMARK  125  A    between atoms: _310  and  _311
REMARK  126  A    between atoms: _310  and  _313
REMARK  127  A    between atoms: _313  and  _314
REMARK  128  A    between atoms: _317  and  _319
REMARK  129  A    between atoms: _319  and  _320
REMARK  130  A    between atoms: _319  and  _322
REMARK  131  A    between atoms: _322  and  _323
REMARK  132  A    between atoms: _326  and  _328
REMARK  133  A    between atoms: _328  and  _329
REMARK  134  A    between atoms: _331  and  _333
REMARK  135  A    between atoms: _333  and  _334
REMARK  136  A    between atoms: _337  and  _339
REMARK  137  A    between atoms: _339  and  _340
REMARK  138  A    between atoms: _339  and  _342
REMARK  139  A    between atoms: _342  and  _343
REMARK  140  A    between atoms: _346  and  _348
REMARK  141  A    between atoms: _348  and  _349
REMARK  142  A    between atoms: _348  and  _351
REMARK  143  A    between atoms: _351  and  _352
REMARK  144  A    between atoms: _357  and  _359
REMARK  145  A    between atoms: _359  and  _360
REMARK  146  A    between atoms: _359  and  _362
REMARK  147  A    between atoms: _362  and  _363
REMARK  148  A    between atoms: _366  and  _368
REMARK  149  A    between atoms: _368  and  _369
REMARK  150  A    between atoms: _368  and  _371
REMARK  151  A    between atoms: _374  and  _376
REMARK  152  A    between atoms: _376  and  _377
REMARK  153  A    between atoms: _376  and  _379
REMARK  154  A    between atoms: _379  and  _380
REMARK  155  A    between atoms: _380  and  _381
REMARK  156  A    between atoms: _381  and  _382
REMARK  157  A    between atoms: _382  and  _383
REMARK  158  A    between atoms: _387  and  _389
REMARK  159  A    between atoms: _389  and  _390
REMARK  160  A    between atoms: _389  and  _392
REMARK  161  A    between atoms: _392  and  _393
REMARK  162  A    between atoms: _393  and  _394
REMARK  163  A    between atoms: _396  and  _398
REMARK  164  A    between atoms: _398  and  _399
REMARK  165  A    between atoms: _398  and  _401
REMARK  166  A    between atoms: _401  and  _402
REMARK  167  A    between atoms: _405  and  _407
REMARK  168  A    between atoms: _407  and  _408
REMARK  169  A    between atoms: _410  and  _412
REMARK  170  A    between atoms: _412  and  _413
REMARK  171  A    between atoms: _415  and  _417
REMARK  172  A    between atoms: _417  and  _418
REMARK  173  A    between atoms: _417  and  _420
REMARK  174  A    between atoms: _420  and  _421
REMARK  175  A    between atoms: _424  and  _426
REMARK  176  A    between atoms: _426  and  _427
REMARK  177  A    between atoms: _429  and  _431
REMARK  178  A    between atoms: _431  and  _432
REMARK  179  A    between atoms: _434  and  _436
REMARK  180  A    between atoms: _436  and  _437
REMARK  181  A    between atoms: _436  and  _439
REMARK  182  A    between atoms: _439  and  _440
REMARK  183  A    between atoms: _446  and  _448
REMARK  184  A    between atoms: _448  and  _449
REMARK  185  A    between atoms: _448  and  _451
REMARK  186  A    between atoms: _451  and  _452
REMARK  187  A    between atoms: _455  and  _457
REMARK  188  A    between atoms: _457  and  _458
REMARK  189  A    between atoms: _457  and  _460
REMARK  190  A    between atoms: _463  and  _465
REMARK  191  A    between atoms: _465  and  _466
REMARK  192  A    between atoms: _465  and  _468
REMARK  193  A    between atoms: _468  and  _469
REMARK  194  A    between atoms: _472  and  _474
REMARK  195  A    between atoms: _474  and  _475
REMARK  196  A    between atoms: _474  and  _477
REMARK  197  A    between atoms: _477  and  _478
REMARK  198  A    between atoms: _482  and  _483
REMARK  199  A    between atoms: _488  and  _490
REMARK  200  A    between atoms: _490  and  _491
REMARK  201  A    between atoms: _490  and  _493
REMARK  202  A    between atoms: _496  and  _498
REMARK  203  A    between atoms: _498  and  _499
REMARK  204  A    between atoms: _498  and  _501
REMARK  205  A    between atoms: _501  and  _502
REMARK  206  A    between atoms: _507  and  _509
REMARK  207  A    between atoms: _509  and  _510
REMARK  208  A    between atoms: _509  and  _512
REMARK  209  A    between atoms: _512  and  _513
REMARK  210  A    between atoms: _516  and  _518
REMARK  211  A    between atoms: _518  and  _519
REMARK  212  A    between atoms: _518  and  _521
REMARK  213  A    between atoms: _521  and  _522
REMARK  214  A    between atoms: _525  and  _527
REMARK  215  A    between atoms: _527  and  _528
REMARK  216  A    between atoms: _530  and  _532
REMARK  217  A    between atoms: _532  and  _533
REMARK  218  A    between atoms: _532  and  _535
REMARK  219  A    between atoms: _535  and  _536
REMARK  220  A    between atoms: _536  and  _537
REMARK  221  A    between atoms: _537  and  _538
REMARK  222  A    between atoms: _547  and  _549
REMARK  223  A    between atoms: _549  and  _550
REMARK  224  A    between atoms: _549  and  _552
REMARK  225  A    between atoms: _552  and  _553
REMARK                            x       y       z     vdW  Elec       q    Type
REMARK                         _______ _______ _______ _____ _____    ______ ____
ROOT
ATOM      1  O   HOH     1     -11.806  51.057  -1.752  0.00  0.00    +0.000 OA
ENDROOT
TORSDOF 0
REMARK  Name = ../refined-set-2016/2q63/2q63_pocket.pdb
REMARK  225 active torsions:
REMARK  status: ('A' for Active; 'I' for Inactive)
REMARK    1  A    between atoms: _1  and  _3
REMARK    2  A    between atoms: _3  and  _4
REMARK    3  A    between atoms: _3  and  _6
REMARK    4  A    between atoms: _6  and  _7
REMARK    5  A    between atoms: _7  and  _8
REMARK    6  A    between atoms: _8  and  _9
REMARK    7  A    between atoms: _18  and  _20
REMARK    8  A    between atoms: _20  and  _21
REMARK    9  A    between atoms: _20  and  _23
REMARK   10  A    between atoms: _23  and  _24
REMARK   11  A    between atoms: _27  and  _29
REMARK   12  A    between atoms: _29  and  _30
REMARK   13  A    between atoms: _29  and  _32
REMARK   14  A    between atoms: _32  and  _33
REMARK   15  A    between atoms: _36  and  _38
REMARK   16  A    between atoms: _38  and  _39
REMARK   17  A    between atoms: _38  and  _41
REMARK   18  A    between atoms: _41  and  _42
REMARK   19  A    between atoms: _45  and  _47
REMARK   20  A    between atoms: _47  and  _48
REMARK   21  A    between atoms: _47  and  _50
REMARK   22  A    between atoms: _50  and  _51
REMARK   23  A    between atoms: _54  and  _56
REMARK   24  A    between atoms: _56  and  _57
REMARK   25  A    between atoms: _59  and  _61
REMARK   26  A    between atoms: _61  and  _62
REMARK   27  A    between atoms: _65  and  _67
REMARK   28  A    between atoms: _67  and  _68
REMARK   29  A    between atoms: _67  and  _70
REMARK   30  A    between atoms: _70  and  _71
REMARK   31  A    between atoms: _74  and  _76
REMARK   32  A    between atoms: _76  and  _77
REMARK   33  A    between atoms: _76  and  _79
REMARK   34  A    between atoms: _79  and  _80
REMARK   35  A    between atoms: _85  and  _87
REMARK   36  A    between atoms: _87  and  _88
REMARK   37  A    between atoms: _87  and  _90
REMARK   38  A    between atoms: _90  and  _91
REMARK   39  A    between atoms: _94  and  _96
REMARK   40  A    between atoms: _96  and  _97
REMARK   41  A    between atoms: _96  and  _99
REMARK   42  A    between atoms: _102  and  _104
REMARK   43  A    between atoms: _104  and  _105
REMARK   44  A    between atoms: _104  and  _107
REMARK   45  A    between atoms: _107  and  _108
REMARK   46  A    between atoms: _108  and  _109
REMARK   47  A    between atoms: _109  and  _110
REMARK   48  A    between atoms: _110  and  _111
REMARK   49  A    between atoms: _115  and  _117
REMARK   50  A    between atoms: _117  and  _118
REMARK   51  A    between atoms: _117  and  _120
REMARK   52  A    between atoms: _120  and  _121
REMARK   53  A    between atoms: _124  and  _126
REMARK   54  A    between atoms: _126  and  _127
REMARK   55  A    between atoms: _129  and  _131
REMARK   56  A    between atoms: _131  and  _132
REMARK   57  A    between atoms: _134  and  _136
REMARK   58  A    between atoms: _136  and  _137
REMARK   59  A    between atoms: _136  and  _139
REMARK   60  A    between atoms: _139  and  _140
REMARK   61  A    between atoms: _143  and  _145
REMARK   62  A    between atoms: _145  and  _146
REMARK   63  A    between atoms: _148  and  _150
REMARK   64  A    between atoms: _150  and  _151
REMARK   65  A    between atoms: _153  and  _155
REMARK   66  A    between atoms: _155  and  _156
REMARK   67  A    between atoms: _155  and  _158
REMARK   68  A    between atoms: _158  and  _159
REMARK   69  A    between atoms: _162  and  _164
REMARK   70  A    between atoms: _164  and  _165
REMARK   71  A    between atoms: _164  and  _167
REMARK   72  A    between atoms: _167  and  _168
REMARK   73  A    between atoms: _172  and  _173
REMARK   74  A    between atoms: _178  and  _180
REMARK   75  A    between atoms: _180  and  _181
REMARK   76  A    between atoms: _180  and  _183
REMARK   77  A    between atoms: _183  and  _184
REMARK   78  A    between atoms: _188  and  _189
REMARK   79  A    between atoms: _194  and  _196
REMARK   80  A    between atoms: _196  and  _197
REMARK   81  A    between atoms: _196  and  _199
REMARK   82  A    between atoms: _202  and  _204
REMARK   83  A    between atoms: _204  and  _205
REMARK   84  A    between atoms: _204  and  _207
REMARK   85  A    between atoms: _207  and  _208
REMARK   86  A    between atoms: _213  and  _215
REMARK   87  A    between atoms: _215  and  _216
REMARK   88  A    between atoms: _215  and  _218
REMARK   89  A    between atoms: _218  and  _219
REMARK   90  A    between atoms: _222  and  _224
REMARK   91  A    between atoms: _224  and  _225
REMARK   92  A    between atoms: _224  and  _227
REMARK   93  A    between atoms: _227  and  _228
REMARK   94  A    between atoms: _231  and  _233
REMARK   95  A    between atoms: _233  and  _234
REMARK   96  A    between atoms: _236  and  _238
REMARK   97  A    between atoms: _238  and  _239
REMARK   98  A    between atoms: _238  and  _241
REMARK   99  A    between atoms: _241  and  _242
REMARK  100  A    between atoms: _242  and  _243
REMARK  101  A    between atoms: _243  and  _244
REMARK  102  A    between atoms: _253  and  _255
REMARK  103  A    between atoms: _255  and  _256
REMARK  104  A    between atoms: _255  and  _258
REMARK  105  A    between atoms: _258  and  _259
REMARK  106  A    between atoms: _264  and  _266
REMARK  107  A    between atoms: _266  and  _267
REMARK  108  A    between atoms: _266  and  _269
REMARK  109  A    between atoms: _269  and  _270
REMARK  110  A    between atoms: _270  and  _271
REMARK  111  A    between atoms: _271  and  _272
REMARK  112  A    between atoms: _281  and  _283
REMARK  113  A    between atoms: _283  and  _284
REMARK  114  A    between atoms: _283  and  _286
REMARK  115  A    between atoms: _286  and  _287
REMARK  116  A    between atoms: _290  and  _292
REMARK  117  A    between atoms: _292  and  _293
REMARK  118  A    between atoms: _292  and  _295
REMARK  119  A    between atoms: _295  and  _296
REMARK  120  A    between atoms: _299  and  _301
REMARK  121  A    between atoms: _301  and  _302
REMARK  122  A    between atoms: _301  and  _304
REMARK  123  A    between atoms: _304  and  _305
REMARK  124  A    between atoms: _308  and  _310
REMARK  125  A    between atoms: _310  and  _311
REMARK  126  A    between atoms: _310  and  _313
REMARK  127  A    between atoms: _313  and  _314
REMARK  128  A    between atoms: _317  and  _319
REMARK  129  A    between atoms: _319  and  _320
REMARK  130  A    between atoms: _319  and  _322
REMARK  131  A    between atoms: _322  and  _323
REMARK  132  A    between atoms: _326  and  _328
REMARK  133  A    between atoms: _328  and  _329
REMARK  134  A    between atoms: _331  and  _333
REMARK  135  A    between atoms: _333  and  _334
REMARK  136  A    between atoms: _337  and  _339
REMARK  137  A    between atoms: _339  and  _340
REMARK  138  A    between atoms: _339  and  _342
REMARK  139  A    between atoms: _342  and  _343
REMARK  140  A    between atoms: _346  and  _348
REMARK  141  A    between atoms: _348  and  _349
REMARK  142  A    between atoms: _348  and  _351
REMARK  143  A    between atoms: _351  and  _352
REMARK  144  A    between atoms: _357  and  _359
REMARK  145  A    between atoms: _359  and  _360
REMARK  146  A    between atoms: _359  and  _362
REMARK  147  A    between atoms: _362  and  _363
REMARK  148  A    between atoms: _366  and  _368
REMARK  149  A    between atoms: _368  and  _369
REMARK  150  A    between atoms: _368  and  _371
REMARK  151  A    between atoms: _374  and  _376
REMARK  152  A    between atoms: _376  and  _377
REMARK  153  A    between atoms: _376  and  _379
REMARK  154  A    between atoms: _379  and  _380
REMARK  155  A    between atoms: _380  and  _381
REMARK  156  A    between atoms: _381  and  _382
REMARK  157  A    between atoms: _382  and  _383
REMARK  158  A    between atoms: _387  and  _389
REMARK  159  A    between atoms: _389  and  _390
REMARK  160  A    between atoms: _389  and  _392
REMARK  161  A    between atoms: _392  and  _393
REMARK  162  A    between atoms: _393  and  _394
REMARK  163  A    between atoms: _396  and  _398
REMARK  164  A    between atoms: _398  and  _399
REMARK  165  A    between atoms: _398  and  _401
REMARK  166  A    between atoms: _401  and  _402
REMARK  167  A    between atoms: _405  and  _407
REMARK  168  A    between atoms: _407  and  _408
REMARK  169  A    between atoms: _410  and  _412
REMARK  170  A    between atoms: _412  and  _413
REMARK  171  A    between atoms: _415  and  _417
REMARK  172  A    between atoms: _417  and  _418
REMARK  173  A    between atoms: _417  and  _420
REMARK  174  A    between atoms: _420  and  _421
REMARK  175  A    between atoms: _424  and  _426
REMARK  176  A    between atoms: _426  and  _427
REMARK  177  A    between atoms: _429  and  _431
REMARK  178  A    between atoms: _431  and  _432
REMARK  179  A    between atoms: _434  and  _436
REMARK  180  A    between atoms: _436  and  _437
REMARK  181  A    between atoms: _436  and  _439
REMARK  182  A    between atoms: _439  and  _440
REMARK  183  A    between atoms: _446  and  _448
REMARK  184  A    between atoms: _448  and  _449
REMARK  185  A    between atoms: _448  and  _451
REMARK  186  A    between atoms: _451  and  _452
REMARK  187  A    between atoms: _455  and  _457
REMARK  188  A    between atoms: _457  and  _458
REMARK  189  A    between atoms: _457  and  _460
REMARK  190  A    between atoms: _463  and  _465
REMARK  191  A    between atoms: _465  and  _466
REMARK  192  A    between atoms: _465  and  _468
REMARK  193  A    between atoms: _468  and  _469
REMARK  194  A    between atoms: _472  and  _474
REMARK  195  A    between atoms: _474  and  _475
REMARK  196  A    between atoms: _474  and  _477
REMARK  197  A    between atoms: _477  and  _478
REMARK  198  A    between atoms: _482  and  _483
REMARK  199  A    between atoms: _488  and  _490
REMARK  200  A    between atoms: _490  and  _491
REMARK  201  A    between atoms: _490  and  _493
REMARK  202  A    between atoms: _496  and  _498
REMARK  203  A    between atoms: _498  and  _499
REMARK  204  A    between atoms: _498  and  _501
REMARK  205  A    between atoms: _501  and  _502
REMARK  206  A    between atoms: _507  and  _509
REMARK  207  A    between atoms: _509  and  _510
REMARK  208  A    between atoms: _509  and  _512
REMARK  209  A    between atoms: _512  and  _513
REMARK  210  A    between atoms: _516  and  _518
REMARK  211  A    between atoms: _518  and  _519
REMARK  212  A    between atoms: _518  and  _521
REMARK  213  A    between atoms: _521  and  _522
REMARK  214  A    between atoms: _525  and  _527
REMARK  215  A    between atoms: _527  and  _528
REMARK  216  A    between atoms: _530  and  _532
REMARK  217  A    between atoms: _532  and  _533
REMARK  218  A    between atoms: _532  and  _535
REMARK  219  A    between atoms: _535  and  _536
REMARK  220  A    between atoms: _536  and  _537
REMARK  221  A    between atoms: _537  and  _538
REMARK  222  A    between atoms: _547  and  _549
REMARK  223  A    between atoms: _549  and  _550
REMARK  224  A    between atoms: _549  and  _552
REMARK  225  A    between atoms: _552  and  _553
REMARK                            x       y       z     vdW  Elec       q    Type
REMARK                         _______ _______ _______ _____ _____    ______ ____
ROOT
ATOM      1  O   HOH     1      -9.380  48.609  -0.247  0.00  0.00    +0.000 OA
ENDROOT
TORSDOF 0
REMARK  Name = ../refined-set-2016/2q63/2q63_pocket.pdb
REMARK  225 active torsions:
REMARK  status: ('A' for Active; 'I' for Inactive)
REMARK    1  A    between atoms: _1  and  _3
REMARK    2  A    between atoms: _3  and  _4
REMARK    3  A    between atoms: _3  and  _6
REMARK    4  A    between atoms: _6  and  _7
REMARK    5  A    between atoms: _7  and  _8
REMARK    6  A    between atoms: _8  and  _9
REMARK    7  A    between atoms: _18  and  _20
REMARK    8  A    between atoms: _20  and  _21
REMARK    9  A    between atoms: _20  and  _23
REMARK   10  A    between atoms: _23  and  _24
REMARK   11  A    between atoms: _27  and  _29
REMARK   12  A    between atoms: _29  and  _30
REMARK   13  A    between atoms: _29  and  _32
REMARK   14  A    between atoms: _32  and  _33
REMARK   15  A    between atoms: _36  and  _38
REMARK   16  A    between atoms: _38  and  _39
REMARK   17  A    between atoms: _38  and  _41
REMARK   18  A    between atoms: _41  and  _42
REMARK   19  A    between atoms: _45  and  _47
REMARK   20  A    between atoms: _47  and  _48
REMARK   21  A    between atoms: _47  and  _50
REMARK   22  A    between atoms: _50  and  _51
REMARK   23  A    between atoms: _54  and  _56
REMARK   24  A    between atoms: _56  and  _57
REMARK   25  A    between atoms: _59  and  _61
REMARK   26  A    between atoms: _61  and  _62
REMARK   27  A    between atoms: _65  and  _67
REMARK   28  A    between atoms: _67  and  _68
REMARK   29  A    between atoms: _67  and  _70
REMARK   30  A    between atoms: _70  and  _71
REMARK   31  A    between atoms: _74  and  _76
REMARK   32  A    between atoms: _76  and  _77
REMARK   33  A    between atoms: _76  and  _79
REMARK   34  A    between atoms: _79  and  _80
REMARK   35  A    between atoms: _85  and  _87
REMARK   36  A    between atoms: _87  and  _88
REMARK   37  A    between atoms: _87  and  _90
REMARK   38  A    between atoms: _90  and  _91
REMARK   39  A    between atoms: _94  and  _96
REMARK   40  A    between atoms: _96  and  _97
REMARK   41  A    between atoms: _96  and  _99
REMARK   42  A    between atoms: _102  and  _104
REMARK   43  A    between atoms: _104  and  _105
REMARK   44  A    between atoms: _104  and  _107
REMARK   45  A    between atoms: _107  and  _108
REMARK   46  A    between atoms: _108  and  _109
REMARK   47  A    between atoms: _109  and  _110
REMARK   48  A    between atoms: _110  and  _111
REMARK   49  A    between atoms: _115  and  _117
REMARK   50  A    between atoms: _117  and  _118
REMARK   51  A    between atoms: _117  and  _120
REMARK   52  A    between atoms: _120  and  _121
REMARK   53  A    between atoms: _124  and  _126
REMARK   54  A    between atoms: _126  and  _127
REMARK   55  A    between atoms: _129  and  _131
REMARK   56  A    between atoms: _131  and  _132
REMARK   57  A    between atoms: _134  and  _136
REMARK   58  A    between atoms: _136  and  _137
REMARK   59  A    between atoms: _136  and  _139
REMARK   60  A    between atoms: _139  and  _140
REMARK   61  A    between atoms: _143  and  _145
REMARK   62  A    between atoms: _145  and  _146
REMARK   63  A    between atoms: _148  and  _150
REMARK   64  A    between atoms: _150  and  _151
REMARK   65  A    between atoms: _153  and  _155
REMARK   66  A    between atoms: _155  and  _156
REMARK   67  A    between atoms: _155  and  _158
REMARK   68  A    between atoms: _158  and  _159
REMARK   69  A    between atoms: _162  and  _164
REMARK   70  A    between atoms: _164  and  _165
REMARK   71  A    between atoms: _164  and  _167
REMARK   72  A    between atoms: _167  and  _168
REMARK   73  A    between atoms: _172  and  _173
REMARK   74  A    between atoms: _178  and  _180
REMARK   75  A    between atoms: _180  and  _181
REMARK   76  A    between atoms: _180  and  _183
REMARK   77  A    between atoms: _183  and  _184
REMARK   78  A    between atoms: _188  and  _189
REMARK   79  A    between atoms: _194  and  _196
REMARK   80  A    between atoms: _196  and  _197
REMARK   81  A    between atoms: _196  and  _199
REMARK   82  A    between atoms: _202  and  _204
REMARK   83  A    between atoms: _204  and  _205
REMARK   84  A    between atoms: _204  and  _207
REMARK   85  A    between atoms: _207  and  _208
REMARK   86  A    between atoms: _213  and  _215
REMARK   87  A    between atoms: _215  and  _216
REMARK   88  A    between atoms: _215  and  _218
REMARK   89  A    between atoms: _218  and  _219
REMARK   90  A    between atoms: _222  and  _224
REMARK   91  A    between atoms: _224  and  _225
REMARK   92  A    between atoms: _224  and  _227
REMARK   93  A    between atoms: _227  and  _228
REMARK   94  A    between atoms: _231  and  _233
REMARK   95  A    between atoms: _233  and  _234
REMARK   96  A    between atoms: _236  and  _238
REMARK   97  A    between atoms: _238  and  _239
REMARK   98  A    between atoms: _238  and  _241
REMARK   99  A    between atoms: _241  and  _242
REMARK  100  A    between atoms: _242  and  _243
REMARK  101  A    between atoms: _243  and  _244
REMARK  102  A    between atoms: _253  and  _255
REMARK  103  A    between atoms: _255  and  _256
REMARK  104  A    between atoms: _255  and  _258
REMARK  105  A    between atoms: _258  and  _259
REMARK  106  A    between atoms: _264  and  _266
REMARK  107  A    between atoms: _266  and  _267
REMARK  108  A    between atoms: _266  and  _269
REMARK  109  A    between atoms: _269  and  _270
REMARK  110  A    between atoms: _270  and  _271
REMARK  111  A    between atoms: _271  and  _272
REMARK  112  A    between atoms: _281  and  _283
REMARK  113  A    between atoms: _283  and  _284
REMARK  114  A    between atoms: _283  and  _286
REMARK  115  A    between atoms: _286  and  _287
REMARK  116  A    between atoms: _290  and  _292
REMARK  117  A    between atoms: _292  and  _293
REMARK  118  A    between atoms: _292  and  _295
REMARK  119  A    between atoms: _295  and  _296
REMARK  120  A    between atoms: _299  and  _301
REMARK  121  A    between atoms: _301  and  _302
REMARK  122  A    between atoms: _301  and  _304
REMARK  123  A    between atoms: _304  and  _305
REMARK  124  A    between atoms: _308  and  _310
REMARK  125  A    between atoms: _310  and  _311
REMARK  126  A    between atoms: _310  and  _313
REMARK  127  A    between atoms: _313  and  _314
REMARK  128  A    between atoms: _317  and  _319
REMARK  129  A    between atoms: _319  and  _320
REMARK  130  A    between atoms: _319  and  _322
REMARK  131  A    between atoms: _322  and  _323
REMARK  132  A    between atoms: _326  and  _328
REMARK  133  A    between atoms: _328  and  _329
REMARK  134  A    between atoms: _331  and  _333
REMARK  135  A    between atoms: _333  and  _334
REMARK  136  A    between atoms: _337  and  _339
REMARK  137  A    between atoms: _339  and  _340
REMARK  138  A    between atoms: _339  and  _342
REMARK  139  A    between atoms: _342  and  _343
REMARK  140  A    between atoms: _346  and  _348
REMARK  141  A    between atoms: _348  and  _349
REMARK  142  A    between atoms: _348  and  _351
REMARK  143  A    between atoms: _351  and  _352
REMARK  144  A    between atoms: _357  and  _359
REMARK  145  A    between atoms: _359  and  _360
REMARK  146  A    between atoms: _359  and  _362
REMARK  147  A    between atoms: _362  and  _363
REMARK  148  A    between atoms: _366  and  _368
REMARK  149  A    between atoms: _368  and  _369
REMARK  150  A    between atoms: _368  and  _371
REMARK  151  A    between atoms: _374  and  _376
REMARK  152  A    between atoms: _376  and  _377
REMARK  153  A    between atoms: _376  and  _379
REMARK  154  A    between atoms: _379  and  _380
REMARK  155  A    between atoms: _380  and  _381
REMARK  156  A    between atoms: _381  and  _382
REMARK  157  A    between atoms: _382  and  _383
REMARK  158  A    between atoms: _387  and  _389
REMARK  159  A    between atoms: _389  and  _390
REMARK  160  A    between atoms: _389  and  _392
REMARK  161  A    between atoms: _392  and  _393
REMARK  162  A    between atoms: _393  and  _394
REMARK  163  A    between atoms: _396  and  _398
REMARK  164  A    between atoms: _398  and  _399
REMARK  165  A    between atoms: _398  and  _401
REMARK  166  A    between atoms: _401  and  _402
REMARK  167  A    between atoms: _405  and  _407
REMARK  168  A    between atoms: _407  and  _408
REMARK  169  A    between atoms: _410  and  _412
REMARK  170  A    between atoms: _412  and  _413
REMARK  171  A    between atoms: _415  and  _417
REMARK  172  A    between atoms: _417  and  _418
REMARK  173  A    between atoms: _417  and  _420
REMARK  174  A    between atoms: _420  and  _421
REMARK  175  A    between atoms: _424  and  _426
REMARK  176  A    between atoms: _426  and  _427
REMARK  177  A    between atoms: _429  and  _431
REMARK  178  A    between atoms: _431  and  _432
REMARK  179  A    between atoms: _434  and  _436
REMARK  180  A    between atoms: _436  and  _437
REMARK  181  A    between atoms: _436  and  _439
REMARK  182  A    between atoms: _439  and  _440
REMARK  183  A    between atoms: _446  and  _448
REMARK  184  A    between atoms: _448  and  _449
REMARK  185  A    between atoms: _448  and  _451
REMARK  186  A    between atoms: _451  and  _452
REMARK  187  A    between atoms: _455  and  _457
REMARK  188  A    between atoms: _457  and  _458
REMARK  189  A    between atoms: _457  and  _460
REMARK  190  A    between atoms: _463  and  _465
REMARK  191  A    between atoms: _465  and  _466
REMARK  192  A    between atoms: _465  and  _468
REMARK  193  A    between atoms: _468  and  _469
REMARK  194  A    between atoms: _472  and  _474
REMARK  195  A    between atoms: _474  and  _475
REMARK  196  A    between atoms: _474  and  _477
REMARK  197  A    between atoms: _477  and  _478
REMARK  198  A    between atoms: _482  and  _483
REMARK  199  A    between atoms: _488  and  _490
REMARK  200  A    between atoms: _490  and  _491
REMARK  201  A    between atoms: _490  and  _493
REMARK  202  A    between atoms: _496  and  _498
REMARK  203  A    between atoms: _498  and  _499
REMARK  204  A    between atoms: _498  and  _501
REMARK  205  A    between atoms: _501  and  _502
REMARK  206  A    between atoms: _507  and  _509
REMARK  207  A    between atoms: _509  and  _510
REMARK  208  A    between atoms: _509  and  _512
REMARK  209  A    between atoms: _512  and  _513
REMARK  210  A    between atoms: _516  and  _518
REMARK  211  A    between atoms: _518  and  _519
REMARK  212  A    between atoms: _518  and  _521
REMARK  213  A    between atoms: _521  and  _522
REMARK  214  A    between atoms: _525  and  _527
REMARK  215  A    between atoms: _527  and  _528
REMARK  216  A    between atoms: _530  and  _532
REMARK  217  A    between atoms: _532  and  _533
REMARK  218  A    between atoms: _532  and  _535
REMARK  219  A    between atoms: _535  and  _536
REMARK  220  A    between atoms: _536  and  _537
REMARK  221  A    between atoms: _537  and  _538
REMARK  222  A    between atoms: _547  and  _549
REMARK  223  A    between atoms: _549  and  _550
REMARK  224  A    between atoms: _549  and  _552
REMARK  225  A    between atoms: _552  and  _553
REMARK                            x       y       z     vdW  Elec       q    Type
REMARK                         _______ _______ _______ _____ _____    ______ ____
ROOT
ATOM      1  O   HOH     1     -12.555  47.979  -5.790  0.00  0.00    +0.000 OA
ENDROOT
TORSDOF 0
REMARK  Name = ../refined-set-2016/2q63/2q63_pocket.pdb
REMARK  225 active torsions:
REMARK  status: ('A' for Active; 'I' for Inactive)
REMARK    1  A    between atoms: _1  and  _3
REMARK    2  A    between atoms: _3  and  _4
REMARK    3  A    between atoms: _3  and  _6
REMARK    4  A    between atoms: _6  and  _7
REMARK    5  A    between atoms: _7  and  _8
REMARK    6  A    between atoms: _8  and  _9
REMARK    7  A    between atoms: _18  and  _20
REMARK    8  A    between atoms: _20  and  _21
REMARK    9  A    between atoms: _20  and  _23
REMARK   10  A    between atoms: _23  and  _24
REMARK   11  A    between atoms: _27  and  _29
REMARK   12  A    between atoms: _29  and  _30
REMARK   13  A    between atoms: _29  and  _32
REMARK   14  A    between atoms: _32  and  _33
REMARK   15  A    between atoms: _36  and  _38
REMARK   16  A    between atoms: _38  and  _39
REMARK   17  A    between atoms: _38  and  _41
REMARK   18  A    between atoms: _41  and  _42
REMARK   19  A    between atoms: _45  and  _47
REMARK   20  A    between atoms: _47  and  _48
REMARK   21  A    between atoms: _47  and  _50
REMARK   22  A    between atoms: _50  and  _51
REMARK   23  A    between atoms: _54  and  _56
REMARK   24  A    between atoms: _56  and  _57
REMARK   25  A    between atoms: _59  and  _61
REMARK   26  A    between atoms: _61  and  _62
REMARK   27  A    between atoms: _65  and  _67
REMARK   28  A    between atoms: _67  and  _68
REMARK   29  A    between atoms: _67  and  _70
REMARK   30  A    between atoms: _70  and  _71
REMARK   31  A    between atoms: _74  and  _76
REMARK   32  A    between atoms: _76  and  _77
REMARK   33  A    between atoms: _76  and  _79
REMARK   34  A    between atoms: _79  and  _80
REMARK   35  A    between atoms: _85  and  _87
REMARK   36  A    between atoms: _87  and  _88
REMARK   37  A    between atoms: _87  and  _90
REMARK   38  A    between atoms: _90  and  _91
REMARK   39  A    between atoms: _94  and  _96
REMARK   40  A    between atoms: _96  and  _97
REMARK   41  A    between atoms: _96  and  _99
REMARK   42  A    between atoms: _102  and  _104
REMARK   43  A    between atoms: _104  and  _105
REMARK   44  A    between atoms: _104  and  _107
REMARK   45  A    between atoms: _107  and  _108
REMARK   46  A    between atoms: _108  and  _109
REMARK   47  A    between atoms: _109  and  _110
REMARK   48  A    between atoms: _110  and  _111
REMARK   49  A    between atoms: _115  and  _117
REMARK   50  A    between atoms: _117  and  _118
REMARK   51  A    between atoms: _117  and  _120
REMARK   52  A    between atoms: _120  and  _121
REMARK   53  A    between atoms: _124  and  _126
REMARK   54  A    between atoms: _126  and  _127
REMARK   55  A    between atoms: _129  and  _131
REMARK   56  A    between atoms: _131  and  _132
REMARK   57  A    between atoms: _134  and  _136
REMARK   58  A    between atoms: _136  and  _137
REMARK   59  A    between atoms: _136  and  _139
REMARK   60  A    between atoms: _139  and  _140
REMARK   61  A    between atoms: _143  and  _145
REMARK   62  A    between atoms: _145  and  _146
REMARK   63  A    between atoms: _148  and  _150
REMARK   64  A    between atoms: _150  and  _151
REMARK   65  A    between atoms: _153  and  _155
REMARK   66  A    between atoms: _155  and  _156
REMARK   67  A    between atoms: _155  and  _158
REMARK   68  A    between atoms: _158  and  _159
REMARK   69  A    between atoms: _162  and  _164
REMARK   70  A    between atoms: _164  and  _165
REMARK   71  A    between atoms: _164  and  _167
REMARK   72  A    between atoms: _167  and  _168
REMARK   73  A    between atoms: _172  and  _173
REMARK   74  A    between atoms: _178  and  _180
REMARK   75  A    between atoms: _180  and  _181
REMARK   76  A    between atoms: _180  and  _183
REMARK   77  A    between atoms: _183  and  _184
REMARK   78  A    between atoms: _188  and  _189
REMARK   79  A    between atoms: _194  and  _196
REMARK   80  A    between atoms: _196  and  _197
REMARK   81  A    between atoms: _196  and  _199
REMARK   82  A    between atoms: _202  and  _204
REMARK   83  A    between atoms: _204  and  _205
REMARK   84  A    between atoms: _204  and  _207
REMARK   85  A    between atoms: _207  and  _208
REMARK   86  A    between atoms: _213  and  _215
REMARK   87  A    between atoms: _215  and  _216
REMARK   88  A    between atoms: _215  and  _218
REMARK   89  A    between atoms: _218  and  _219
REMARK   90  A    between atoms: _222  and  _224
REMARK   91  A    between atoms: _224  and  _225
REMARK   92  A    between atoms: _224  and  _227
REMARK   93  A    between atoms: _227  and  _228
REMARK   94  A    between atoms: _231  and  _233
REMARK   95  A    between atoms: _233  and  _234
REMARK   96  A    between atoms: _236  and  _238
REMARK   97  A    between atoms: _238  and  _239
REMARK   98  A    between atoms: _238  and  _241
REMARK   99  A    between atoms: _241  and  _242
REMARK  100  A    between atoms: _242  and  _243
REMARK  101  A    between atoms: _243  and  _244
REMARK  102  A    between atoms: _253  and  _255
REMARK  103  A    between atoms: _255  and  _256
REMARK  104  A    between atoms: _255  and  _258
REMARK  105  A    between atoms: _258  and  _259
REMARK  106  A    between atoms: _264  and  _266
REMARK  107  A    between atoms: _266  and  _267
REMARK  108  A    between atoms: _266  and  _269
REMARK  109  A    between atoms: _269  and  _270
REMARK  110  A    between atoms: _270  and  _271
REMARK  111  A    between atoms: _271  and  _272
REMARK  112  A    between atoms: _281  and  _283
REMARK  113  A    between atoms: _283  and  _284
REMARK  114  A    between atoms: _283  and  _286
REMARK  115  A    between atoms: _286  and  _287
REMARK  116  A    between atoms: _290  and  _292
REMARK  117  A    between atoms: _292  and  _293
REMARK  118  A    between atoms: _292  and  _295
REMARK  119  A    between atoms: _295  and  _296
REMARK  120  A    between atoms: _299  and  _301
REMARK  121  A    between atoms: _301  and  _302
REMARK  122  A    between atoms: _301  and  _304
REMARK  123  A    between atoms: _304  and  _305
REMARK  124  A    between atoms: _308  and  _310
REMARK  125  A    between atoms: _310  and  _311
REMARK  126  A    between atoms: _310  and  _313
REMARK  127  A    between atoms: _313  and  _314
REMARK  128  A    between atoms: _317  and  _319
REMARK  129  A    between atoms: _319  and  _320
REMARK  130  A    between atoms: _319  and  _322
REMARK  131  A    between atoms: _322  and  _323
REMARK  132  A    between atoms: _326  and  _328
REMARK  133  A    between atoms: _328  and  _329
REMARK  134  A    between atoms: _331  and  _333
REMARK  135  A    between atoms: _333  and  _334
REMARK  136  A    between atoms: _337  and  _339
REMARK  137  A    between atoms: _339  and  _340
REMARK  138  A    between atoms: _339  and  _342
REMARK  139  A    between atoms: _342  and  _343
REMARK  140  A    between atoms: _346  and  _348
REMARK  141  A    between atoms: _348  and  _349
REMARK  142  A    between atoms: _348  and  _351
REMARK  143  A    between atoms: _351  and  _352
REMARK  144  A    between atoms: _357  and  _359
REMARK  145  A    between atoms: _359  and  _360
REMARK  146  A    between atoms: _359  and  _362
REMARK  147  A    between atoms: _362  and  _363
REMARK  148  A    between atoms: _366  and  _368
REMARK  149  A    between atoms: _368  and  _369
REMARK  150  A    between atoms: _368  and  _371
REMARK  151  A    between atoms: _374  and  _376
REMARK  152  A    between atoms: _376  and  _377
REMARK  153  A    between atoms: _376  and  _379
REMARK  154  A    between atoms: _379  and  _380
REMARK  155  A    between atoms: _380  and  _381
REMARK  156  A    between atoms: _381  and  _382
REMARK  157  A    between atoms: _382  and  _383
REMARK  158  A    between atoms: _387  and  _389
REMARK  159  A    between atoms: _389  and  _390
REMARK  160  A    between atoms: _389  and  _392
REMARK  161  A    between atoms: _392  and  _393
REMARK  162  A    between atoms: _393  and  _394
REMARK  163  A    between atoms: _396  and  _398
REMARK  164  A    between atoms: _398  and  _399
REMARK  165  A    between atoms: _398  and  _401
REMARK  166  A    between atoms: _401  and  _402
REMARK  167  A    between atoms: _405  and  _407
REMARK  168  A    between atoms: _407  and  _408
REMARK  169  A    between atoms: _410  and  _412
REMARK  170  A    between atoms: _412  and  _413
REMARK  171  A    between atoms: _415  and  _417
REMARK  172  A    between atoms: _417  and  _418
REMARK  173  A    between atoms: _417  and  _420
REMARK  174  A    between atoms: _420  and  _421
REMARK  175  A    between atoms: _424  and  _426
REMARK  176  A    between atoms: _426  and  _427
REMARK  177  A    between atoms: _429  and  _431
REMARK  178  A    between atoms: _431  and  _432
REMARK  179  A    between atoms: _434  and  _436
REMARK  180  A    between atoms: _436  and  _437
REMARK  181  A    between atoms: _436  and  _439
REMARK  182  A    between atoms: _439  and  _440
REMARK  183  A    between atoms: _446  and  _448
REMARK  184  A    between atoms: _448  and  _449
REMARK  185  A    between atoms: _448  and  _451
REMARK  186  A    between atoms: _451  and  _452
REMARK  187  A    between atoms: _455  and  _457
REMARK  188  A    between atoms: _457  and  _458
REMARK  189  A    between atoms: _457  and  _460
REMARK  190  A    between atoms: _463  and  _465
REMARK  191  A    between atoms: _465  and  _466
REMARK  192  A    between atoms: _465  and  _468
REMARK  193  A    between atoms: _468  and  _469
REMARK  194  A    between atoms: _472  and  _474
REMARK  195  A    between atoms: _474  and  _475
REMARK  196  A    between atoms: _474  and  _477
REMARK  197  A    between atoms: _477  and  _478
REMARK  198  A    between atoms: _482  and  _483
REMARK  199  A    between atoms: _488  and  _490
REMARK  200  A    between atoms: _490  and  _491
REMARK  201  A    between atoms: _490  and  _493
REMARK  202  A    between atoms: _496  and  _498
REMARK  203  A    between atoms: _498  and  _499
REMARK  204  A    between atoms: _498  and  _501
REMARK  205  A    between atoms: _501  and  _502
REMARK  206  A    between atoms: _507  and  _509
REMARK  207  A    between atoms: _509  and  _510
REMARK  208  A    between atoms: _509  and  _512
REMARK  209  A    between atoms: _512  and  _513
REMARK  210  A    between atoms: _516  and  _518
REMARK  211  A    between atoms: _518  and  _519
REMARK  212  A    between atoms: _518  and  _521
REMARK  213  A    between atoms: _521  and  _522
REMARK  214  A    between atoms: _525  and  _527
REMARK  215  A    between atoms: _527  and  _528
REMARK  216  A    between atoms: _530  and  _532
REMARK  217  A    between atoms: _532  and  _533
REMARK  218  A    between atoms: _532  and  _535
REMARK  219  A    between atoms: _535  and  _536
REMARK  220  A    between atoms: _536  and  _537
REMARK  221  A    between atoms: _537  and  _538
REMARK  222  A    between atoms: _547  and  _549
REMARK  223  A    between atoms: _549  and  _550
REMARK  224  A    between atoms: _549  and  _552
REMARK  225  A    between atoms: _552  and  _553
REMARK                            x       y       z     vdW  Elec       q    Type
REMARK                         _______ _______ _______ _____ _____    ______ ____
ROOT
ATOM      1  O   HOH     1     -10.838  41.771   6.440  0.00  0.00    +0.000 OA
ENDROOT
TORSDOF 0
REMARK  Name = ../refined-set-2016/2q63/2q63_pocket.pdb
REMARK  225 active torsions:
REMARK  status: ('A' for Active; 'I' for Inactive)
REMARK    1  A    between atoms: _1  and  _3
REMARK    2  A    between atoms: _3  and  _4
REMARK    3  A    between atoms: _3  and  _6
REMARK    4  A    between atoms: _6  and  _7
REMARK    5  A    between atoms: _7  and  _8
REMARK    6  A    between atoms: _8  and  _9
REMARK    7  A    between atoms: _18  and  _20
REMARK    8  A    between atoms: _20  and  _21
REMARK    9  A    between atoms: _20  and  _23
REMARK   10  A    between atoms: _23  and  _24
REMARK   11  A    between atoms: _27  and  _29
REMARK   12  A    between atoms: _29  and  _30
REMARK   13  A    between atoms: _29  and  _32
REMARK   14  A    between atoms: _32  and  _33
REMARK   15  A    between atoms: _36  and  _38
REMARK   16  A    between atoms: _38  and  _39
REMARK   17  A    between atoms: _38  and  _41
REMARK   18  A    between atoms: _41  and  _42
REMARK   19  A    between atoms: _45  and  _47
REMARK   20  A    between atoms: _47  and  _48
REMARK   21  A    between atoms: _47  and  _50
REMARK   22  A    between atoms: _50  and  _51
REMARK   23  A    between atoms: _54  and  _56
REMARK   24  A    between atoms: _56  and  _57
REMARK   25  A    between atoms: _59  and  _61
REMARK   26  A    between atoms: _61  and  _62
REMARK   27  A    between atoms: _65  and  _67
REMARK   28  A    between atoms: _67  and  _68
REMARK   29  A    between atoms: _67  and  _70
REMARK   30  A    between atoms: _70  and  _71
REMARK   31  A    between atoms: _74  and  _76
REMARK   32  A    between atoms: _76  and  _77
REMARK   33  A    between atoms: _76  and  _79
REMARK   34  A    between atoms: _79  and  _80
REMARK   35  A    between atoms: _85  and  _87
REMARK   36  A    between atoms: _87  and  _88
REMARK   37  A    between atoms: _87  and  _90
REMARK   38  A    between atoms: _90  and  _91
REMARK   39  A    between atoms: _94  and  _96
REMARK   40  A    between atoms: _96  and  _97
REMARK   41  A    between atoms: _96  and  _99
REMARK   42  A    between atoms: _102  and  _104
REMARK   43  A    between atoms: _104  and  _105
REMARK   44  A    between atoms: _104  and  _107
REMARK   45  A    between atoms: _107  and  _108
REMARK   46  A    between atoms: _108  and  _109
REMARK   47  A    between atoms: _109  and  _110
REMARK   48  A    between atoms: _110  and  _111
REMARK   49  A    between atoms: _115  and  _117
REMARK   50  A    between atoms: _117  and  _118
REMARK   51  A    between atoms: _117  and  _120
REMARK   52  A    between atoms: _120  and  _121
REMARK   53  A    between atoms: _124  and  _126
REMARK   54  A    between atoms: _126  and  _127
REMARK   55  A    between atoms: _129  and  _131
REMARK   56  A    between atoms: _131  and  _132
REMARK   57  A    between atoms: _134  and  _136
REMARK   58  A    between atoms: _136  and  _137
REMARK   59  A    between atoms: _136  and  _139
REMARK   60  A    between atoms: _139  and  _140
REMARK   61  A    between atoms: _143  and  _145
REMARK   62  A    between atoms: _145  and  _146
REMARK   63  A    between atoms: _148  and  _150
REMARK   64  A    between atoms: _150  and  _151
REMARK   65  A    between atoms: _153  and  _155
REMARK   66  A    between atoms: _155  and  _156
REMARK   67  A    between atoms: _155  and  _158
REMARK   68  A    between atoms: _158  and  _159
REMARK   69  A    between atoms: _162  and  _164
REMARK   70  A    between atoms: _164  and  _165
REMARK   71  A    between atoms: _164  and  _167
REMARK   72  A    between atoms: _167  and  _168
REMARK   73  A    between atoms: _172  and  _173
REMARK   74  A    between atoms: _178  and  _180
REMARK   75  A    between atoms: _180  and  _181
REMARK   76  A    between atoms: _180  and  _183
REMARK   77  A    between atoms: _183  and  _184
REMARK   78  A    between atoms: _188  and  _189
REMARK   79  A    between atoms: _194  and  _196
REMARK   80  A    between atoms: _196  and  _197
REMARK   81  A    between atoms: _196  and  _199
REMARK   82  A    between atoms: _202  and  _204
REMARK   83  A    between atoms: _204  and  _205
REMARK   84  A    between atoms: _204  and  _207
REMARK   85  A    between atoms: _207  and  _208
REMARK   86  A    between atoms: _213  and  _215
REMARK   87  A    between atoms: _215  and  _216
REMARK   88  A    between atoms: _215  and  _218
REMARK   89  A    between atoms: _218  and  _219
REMARK   90  A    between atoms: _222  and  _224
REMARK   91  A    between atoms: _224  and  _225
REMARK   92  A    between atoms: _224  and  _227
REMARK   93  A    between atoms: _227  and  _228
REMARK   94  A    between atoms: _231  and  _233
REMARK   95  A    between atoms: _233  and  _234
REMARK   96  A    between atoms: _236  and  _238
REMARK   97  A    between atoms: _238  and  _239
REMARK   98  A    between atoms: _238  and  _241
REMARK   99  A    between atoms: _241  and  _242
REMARK  100  A    between atoms: _242  and  _243
REMARK  101  A    between atoms: _243  and  _244
REMARK  102  A    between atoms: _253  and  _255
REMARK  103  A    between atoms: _255  and  _256
REMARK  104  A    between atoms: _255  and  _258
REMARK  105  A    between atoms: _258  and  _259
REMARK  106  A    between atoms: _264  and  _266
REMARK  107  A    between atoms: _266  and  _267
REMARK  108  A    between atoms: _266  and  _269
REMARK  109  A    between atoms: _269  and  _270
REMARK  110  A    between atoms: _270  and  _271
REMARK  111  A    between atoms: _271  and  _272
REMARK  112  A    between atoms: _281  and  _283
REMARK  113  A    between atoms: _283  and  _284
REMARK  114  A    between atoms: _283  and  _286
REMARK  115  A    between atoms: _286  and  _287
REMARK  116  A    between atoms: _290  and  _292
REMARK  117  A    between atoms: _292  and  _293
REMARK  118  A    between atoms: _292  and  _295
REMARK  119  A    between atoms: _295  and  _296
REMARK  120  A    between atoms: _299  and  _301
REMARK  121  A    between atoms: _301  and  _302
REMARK  122  A    between atoms: _301  and  _304
REMARK  123  A    between atoms: _304  and  _305
REMARK  124  A    between atoms: _308  and  _310
REMARK  125  A    between atoms: _310  and  _311
REMARK  126  A    between atoms: _310  and  _313
REMARK  127  A    between atoms: _313  and  _314
REMARK  128  A    between atoms: _317  and  _319
REMARK  129  A    between atoms: _319  and  _320
REMARK  130  A    between atoms: _319  and  _322
REMARK  131  A    between atoms: _322  and  _323
REMARK  132  A    between atoms: _326  and  _328
REMARK  133  A    between atoms: _328  and  _329
REMARK  134  A    between atoms: _331  and  _333
REMARK  135  A    between atoms: _333  and  _334
REMARK  136  A    between atoms: _337  and  _339
REMARK  137  A    between atoms: _339  and  _340
REMARK  138  A    between atoms: _339  and  _342
REMARK  139  A    between atoms: _342  and  _343
REMARK  140  A    between atoms: _346  and  _348
REMARK  141  A    between atoms: _348  and  _349
REMARK  142  A    between atoms: _348  and  _351
REMARK  143  A    between atoms: _351  and  _352
REMARK  144  A    between atoms: _357  and  _359
REMARK  145  A    between atoms: _359  and  _360
REMARK  146  A    between atoms: _359  and  _362
REMARK  147  A    between atoms: _362  and  _363
REMARK  148  A    between atoms: _366  and  _368
REMARK  149  A    between atoms: _368  and  _369
REMARK  150  A    between atoms: _368  and  _371
REMARK  151  A    between atoms: _374  and  _376
REMARK  152  A    between atoms: _376  and  _377
REMARK  153  A    between atoms: _376  and  _379
REMARK  154  A    between atoms: _379  and  _380
REMARK  155  A    between atoms: _380  and  _381
REMARK  156  A    between atoms: _381  and  _382
REMARK  157  A    between atoms: _382  and  _383
REMARK  158  A    between atoms: _387  and  _389
REMARK  159  A    between atoms: _389  and  _390
REMARK  160  A    between atoms: _389  and  _392
REMARK  161  A    between atoms: _392  and  _393
REMARK  162  A    between atoms: _393  and  _394
REMARK  163  A    between atoms: _396  and  _398
REMARK  164  A    between atoms: _398  and  _399
REMARK  165  A    between atoms: _398  and  _401
REMARK  166  A    between atoms: _401  and  _402
REMARK  167  A    between atoms: _405  and  _407
REMARK  168  A    between atoms: _407  and  _408
REMARK  169  A    between atoms: _410  and  _412
REMARK  170  A    between atoms: _412  and  _413
REMARK  171  A    between atoms: _415  and  _417
REMARK  172  A    between atoms: _417  and  _418
REMARK  173  A    between atoms: _417  and  _420
REMARK  174  A    between atoms: _420  and  _421
REMARK  175  A    between atoms: _424  and  _426
REMARK  176  A    between atoms: _426  and  _427
REMARK  177  A    between atoms: _429  and  _431
REMARK  178  A    between atoms: _431  and  _432
REMARK  179  A    between atoms: _434  and  _436
REMARK  180  A    between atoms: _436  and  _437
REMARK  181  A    between atoms: _436  and  _439
REMARK  182  A    between atoms: _439  and  _440
REMARK  183  A    between atoms: _446  and  _448
REMARK  184  A    between atoms: _448  and  _449
REMARK  185  A    between atoms: _448  and  _451
REMARK  186  A    between atoms: _451  and  _452
REMARK  187  A    between atoms: _455  and  _457
REMARK  188  A    between atoms: _457  and  _458
REMARK  189  A    between atoms: _457  and  _460
REMARK  190  A    between atoms: _463  and  _465
REMARK  191  A    between atoms: _465  and  _466
REMARK  192  A    between atoms: _465  and  _468
REMARK  193  A    between atoms: _468  and  _469
REMARK  194  A    between atoms: _472  and  _474
REMARK  195  A    between atoms: _474  and  _475
REMARK  196  A    between atoms: _474  and  _477
REMARK  197  A    between atoms: _477  and  _478
REMARK  198  A    between atoms: _482  and  _483
REMARK  199  A    between atoms: _488  and  _490
REMARK  200  A    between atoms: _490  and  _491
REMARK  201  A    between atoms: _490  and  _493
REMARK  202  A    between atoms: _496  and  _498
REMARK  203  A    between atoms: _498  and  _499
REMARK  204  A    between atoms: _498  and  _501
REMARK  205  A    between atoms: _501  and  _502
REMARK  206  A    between atoms: _507  and  _509
REMARK  207  A    between atoms: _509  and  _510
REMARK  208  A    between atoms: _509  and  _512
REMARK  209  A    between atoms: _512  and  _513
REMARK  210  A    between atoms: _516  and  _518
REMARK  211  A    between atoms: _518  and  _519
REMARK  212  A    between atoms: _518  and  _521
REMARK  213  A    between atoms: _521  and  _522
REMARK  214  A    between atoms: _525  and  _527
REMARK  215  A    between atoms: _527  and  _528
REMARK  216  A    between atoms: _530  and  _532
REMARK  217  A    between atoms: _532  and  _533
REMARK  218  A    between atoms: _532  and  _535
REMARK  219  A    between atoms: _535  and  _536
REMARK  220  A    between atoms: _536  and  _537
REMARK  221  A    between atoms: _537  and  _538
REMARK  222  A    between atoms: _547  and  _549
REMARK  223  A    between atoms: _549  and  _550
REMARK  224  A    between atoms: _549  and  _552
REMARK  225  A    between atoms: _552  and  _553
REMARK                            x       y       z     vdW  Elec       q    Type
REMARK                         _______ _______ _______ _____ _____    ______ ____
ROOT
ATOM      1  O   HOH     1      -6.532  59.172   8.659  0.00  0.00    +0.000 OA
ENDROOT
TORSDOF 0
REMARK  Name = ../refined-set-2016/2q63/2q63_pocket.pdb
REMARK  225 active torsions:
REMARK  status: ('A' for Active; 'I' for Inactive)
REMARK    1  A    between atoms: _1  and  _3
REMARK    2  A    between atoms: _3  and  _4
REMARK    3  A    between atoms: _3  and  _6
REMARK    4  A    between atoms: _6  and  _7
REMARK    5  A    between atoms: _7  and  _8
REMARK    6  A    between atoms: _8  and  _9
REMARK    7  A    between atoms: _18  and  _20
REMARK    8  A    between atoms: _20  and  _21
REMARK    9  A    between atoms: _20  and  _23
REMARK   10  A    between atoms: _23  and  _24
REMARK   11  A    between atoms: _27  and  _29
REMARK   12  A    between atoms: _29  and  _30
REMARK   13  A    between atoms: _29  and  _32
REMARK   14  A    between atoms: _32  and  _33
REMARK   15  A    between atoms: _36  and  _38
REMARK   16  A    between atoms: _38  and  _39
REMARK   17  A    between atoms: _38  and  _41
REMARK   18  A    between atoms: _41  and  _42
REMARK   19  A    between atoms: _45  and  _47
REMARK   20  A    between atoms: _47  and  _48
REMARK   21  A    between atoms: _47  and  _50
REMARK   22  A    between atoms: _50  and  _51
REMARK   23  A    between atoms: _54  and  _56
REMARK   24  A    between atoms: _56  and  _57
REMARK   25  A    between atoms: _59  and  _61
REMARK   26  A    between atoms: _61  and  _62
REMARK   27  A    between atoms: _65  and  _67
REMARK   28  A    between atoms: _67  and  _68
REMARK   29  A    between atoms: _67  and  _70
REMARK   30  A    between atoms: _70  and  _71
REMARK   31  A    between atoms: _74  and  _76
REMARK   32  A    between atoms: _76  and  _77
REMARK   33  A    between atoms: _76  and  _79
REMARK   34  A    between atoms: _79  and  _80
REMARK   35  A    between atoms: _85  and  _87
REMARK   36  A    between atoms: _87  and  _88
REMARK   37  A    between atoms: _87  and  _90
REMARK   38  A    between atoms: _90  and  _91
REMARK   39  A    between atoms: _94  and  _96
REMARK   40  A    between atoms: _96  and  _97
REMARK   41  A    between atoms: _96  and  _99
REMARK   42  A    between atoms: _102  and  _104
REMARK   43  A    between atoms: _104  and  _105
REMARK   44  A    between atoms: _104  and  _107
REMARK   45  A    between atoms: _107  and  _108
REMARK   46  A    between atoms: _108  and  _109
REMARK   47  A    between atoms: _109  and  _110
REMARK   48  A    between atoms: _110  and  _111
REMARK   49  A    between atoms: _115  and  _117
REMARK   50  A    between atoms: _117  and  _118
REMARK   51  A    between atoms: _117  and  _120
REMARK   52  A    between atoms: _120  and  _121
REMARK   53  A    between atoms: _124  and  _126
REMARK   54  A    between atoms: _126  and  _127
REMARK   55  A    between atoms: _129  and  _131
REMARK   56  A    between atoms: _131  and  _132
REMARK   57  A    between atoms: _134  and  _136
REMARK   58  A    between atoms: _136  and  _137
REMARK   59  A    between atoms: _136  and  _139
REMARK   60  A    between atoms: _139  and  _140
REMARK   61  A    between atoms: _143  and  _145
REMARK   62  A    between atoms: _145  and  _146
REMARK   63  A    between atoms: _148  and  _150
REMARK   64  A    between atoms: _150  and  _151
REMARK   65  A    between atoms: _153  and  _155
REMARK   66  A    between atoms: _155  and  _156
REMARK   67  A    between atoms: _155  and  _158
REMARK   68  A    between atoms: _158  and  _159
REMARK   69  A    between atoms: _162  and  _164
REMARK   70  A    between atoms: _164  and  _165
REMARK   71  A    between atoms: _164  and  _167
REMARK   72  A    between atoms: _167  and  _168
REMARK   73  A    between atoms: _172  and  _173
REMARK   74  A    between atoms: _178  and  _180
REMARK   75  A    between atoms: _180  and  _181
REMARK   76  A    between atoms: _180  and  _183
REMARK   77  A    between atoms: _183  and  _184
REMARK   78  A    between atoms: _188  and  _189
REMARK   79  A    between atoms: _194  and  _196
REMARK   80  A    between atoms: _196  and  _197
REMARK   81  A    between atoms: _196  and  _199
REMARK   82  A    between atoms: _202  and  _204
REMARK   83  A    between atoms: _204  and  _205
REMARK   84  A    between atoms: _204  and  _207
REMARK   85  A    between atoms: _207  and  _208
REMARK   86  A    between atoms: _213  and  _215
REMARK   87  A    between atoms: _215  and  _216
REMARK   88  A    between atoms: _215  and  _218
REMARK   89  A    between atoms: _218  and  _219
REMARK   90  A    between atoms: _222  and  _224
REMARK   91  A    between atoms: _224  and  _225
REMARK   92  A    between atoms: _224  and  _227
REMARK   93  A    between atoms: _227  and  _228
REMARK   94  A    between atoms: _231  and  _233
REMARK   95  A    between atoms: _233  and  _234
REMARK   96  A    between atoms: _236  and  _238
REMARK   97  A    between atoms: _238  and  _239
REMARK   98  A    between atoms: _238  and  _241
REMARK   99  A    between atoms: _241  and  _242
REMARK  100  A    between atoms: _242  and  _243
REMARK  101  A    between atoms: _243  and  _244
REMARK  102  A    between atoms: _253  and  _255
REMARK  103  A    between atoms: _255  and  _256
REMARK  104  A    between atoms: _255  and  _258
REMARK  105  A    between atoms: _258  and  _259
REMARK  106  A    between atoms: _264  and  _266
REMARK  107  A    between atoms: _266  and  _267
REMARK  108  A    between atoms: _266  and  _269
REMARK  109  A    between atoms: _269  and  _270
REMARK  110  A    between atoms: _270  and  _271
REMARK  111  A    between atoms: _271  and  _272
REMARK  112  A    between atoms: _281  and  _283
REMARK  113  A    between atoms: _283  and  _284
REMARK  114  A    between atoms: _283  and  _286
REMARK  115  A    between atoms: _286  and  _287
REMARK  116  A    between atoms: _290  and  _292
REMARK  117  A    between atoms: _292  and  _293
REMARK  118  A    between atoms: _292  and  _295
REMARK  119  A    between atoms: _295  and  _296
REMARK  120  A    between atoms: _299  and  _301
REMARK  121  A    between atoms: _301  and  _302
REMARK  122  A    between atoms: _301  and  _304
REMARK  123  A    between atoms: _304  and  _305
REMARK  124  A    between atoms: _308  and  _310
REMARK  125  A    between atoms: _310  and  _311
REMARK  126  A    between atoms: _310  and  _313
REMARK  127  A    between atoms: _313  and  _314
REMARK  128  A    between atoms: _317  and  _319
REMARK  129  A    between atoms: _319  and  _320
REMARK  130  A    between atoms: _319  and  _322
REMARK  131  A    between atoms: _322  and  _323
REMARK  132  A    between atoms: _326  and  _328
REMARK  133  A    between atoms: _328  and  _329
REMARK  134  A    between atoms: _331  and  _333
REMARK  135  A    between atoms: _333  and  _334
REMARK  136  A    between atoms: _337  and  _339
REMARK  137  A    between atoms: _339  and  _340
REMARK  138  A    between atoms: _339  and  _342
REMARK  139  A    between atoms: _342  and  _343
REMARK  140  A    between atoms: _346  and  _348
REMARK  141  A    between atoms: _348  and  _349
REMARK  142  A    between atoms: _348  and  _351
REMARK  143  A    between atoms: _351  and  _352
REMARK  144  A    between atoms: _357  and  _359
REMARK  145  A    between atoms: _359  and  _360
REMARK  146  A    between atoms: _359  and  _362
REMARK  147  A    between atoms: _362  and  _363
REMARK  148  A    between atoms: _366  and  _368
REMARK  149  A    between atoms: _368  and  _369
REMARK  150  A    between atoms: _368  and  _371
REMARK  151  A    between atoms: _374  and  _376
REMARK  152  A    between atoms: _376  and  _377
REMARK  153  A    between atoms: _376  and  _379
REMARK  154  A    between atoms: _379  and  _380
REMARK  155  A    between atoms: _380  and  _381
REMARK  156  A    between atoms: _381  and  _382
REMARK  157  A    between atoms: _382  and  _383
REMARK  158  A    between atoms: _387  and  _389
REMARK  159  A    between atoms: _389  and  _390
REMARK  160  A    between atoms: _389  and  _392
REMARK  161  A    between atoms: _392  and  _393
REMARK  162  A    between atoms: _393  and  _394
REMARK  163  A    between atoms: _396  and  _398
REMARK  164  A    between atoms: _398  and  _399
REMARK  165  A    between atoms: _398  and  _401
REMARK  166  A    between atoms: _401  and  _402
REMARK  167  A    between atoms: _405  and  _407
REMARK  168  A    between atoms: _407  and  _408
REMARK  169  A    between atoms: _410  and  _412
REMARK  170  A    between atoms: _412  and  _413
REMARK  171  A    between atoms: _415  and  _417
REMARK  172  A    between atoms: _417  and  _418
REMARK  173  A    between atoms: _417  and  _420
REMARK  174  A    between atoms: _420  and  _421
REMARK  175  A    between atoms: _424  and  _426
REMARK  176  A    between atoms: _426  and  _427
REMARK  177  A    between atoms: _429  and  _431
REMARK  178  A    between atoms: _431  and  _432
REMARK  179  A    between atoms: _434  and  _436
REMARK  180  A    between atoms: _436  and  _437
REMARK  181  A    between atoms: _436  and  _439
REMARK  182  A    between atoms: _439  and  _440
REMARK  183  A    between atoms: _446  and  _448
REMARK  184  A    between atoms: _448  and  _449
REMARK  185  A    between atoms: _448  and  _451
REMARK  186  A    between atoms: _451  and  _452
REMARK  187  A    between atoms: _455  and  _457
REMARK  188  A    between atoms: _457  and  _458
REMARK  189  A    between atoms: _457  and  _460
REMARK  190  A    between atoms: _463  and  _465
REMARK  191  A    between atoms: _465  and  _466
REMARK  192  A    between atoms: _465  and  _468
REMARK  193  A    between atoms: _468  and  _469
REMARK  194  A    between atoms: _472  and  _474
REMARK  195  A    between atoms: _474  and  _475
REMARK  196  A    between atoms: _474  and  _477
REMARK  197  A    between atoms: _477  and  _478
REMARK  198  A    between atoms: _482  and  _483
REMARK  199  A    between atoms: _488  and  _490
REMARK  200  A    between atoms: _490  and  _491
REMARK  201  A    between atoms: _490  and  _493
REMARK  202  A    between atoms: _496  and  _498
REMARK  203  A    between atoms: _498  and  _499
REMARK  204  A    between atoms: _498  and  _501
REMARK  205  A    between atoms: _501  and  _502
REMARK  206  A    between atoms: _507  and  _509
REMARK  207  A    between atoms: _509  and  _510
REMARK  208  A    between atoms: _509  and  _512
REMARK  209  A    between atoms: _512  and  _513
REMARK  210  A    between atoms: _516  and  _518
REMARK  211  A    between atoms: _518  and  _519
REMARK  212  A    between atoms: _518  and  _521
REMARK  213  A    between atoms: _521  and  _522
REMARK  214  A    between atoms: _525  and  _527
REMARK  215  A    between atoms: _527  and  _528
REMARK  216  A    between atoms: _530  and  _532
REMARK  217  A    between atoms: _532  and  _533
REMARK  218  A    between atoms: _532  and  _535
REMARK  219  A    between atoms: _535  and  _536
REMARK  220  A    between atoms: _536  and  _537
REMARK  221  A    between atoms: _537  and  _538
REMARK  222  A    between atoms: _547  and  _549
REMARK  223  A    between atoms: _549  and  _550
REMARK  224  A    between atoms: _549  and  _552
REMARK  225  A    between atoms: _552  and  _553
REMARK                            x       y       z     vdW  Elec       q    Type
REMARK                         _______ _______ _______ _____ _____    ______ ____
ROOT
ATOM      1  O   HOH     1     -10.341  52.175  16.992  0.00  0.00    +0.000 OA
ENDROOT
TORSDOF 0
REMARK  Name = ../refined-set-2016/2q63/2q63_pocket.pdb
REMARK  225 active torsions:
REMARK  status: ('A' for Active; 'I' for Inactive)
REMARK    1  A    between atoms: _1  and  _3
REMARK    2  A    between atoms: _3  and  _4
REMARK    3  A    between atoms: _3  and  _6
REMARK    4  A    between atoms: _6  and  _7
REMARK    5  A    between atoms: _7  and  _8
REMARK    6  A    between atoms: _8  and  _9
REMARK    7  A    between atoms: _18  and  _20
REMARK    8  A    between atoms: _20  and  _21
REMARK    9  A    between atoms: _20  and  _23
REMARK   10  A    between atoms: _23  and  _24
REMARK   11  A    between atoms: _27  and  _29
REMARK   12  A    between atoms: _29  and  _30
REMARK   13  A    between atoms: _29  and  _32
REMARK   14  A    between atoms: _32  and  _33
REMARK   15  A    between atoms: _36  and  _38
REMARK   16  A    between atoms: _38  and  _39
REMARK   17  A    between atoms: _38  and  _41
REMARK   18  A    between atoms: _41  and  _42
REMARK   19  A    between atoms: _45  and  _47
REMARK   20  A    between atoms: _47  and  _48
REMARK   21  A    between atoms: _47  and  _50
REMARK   22  A    between atoms: _50  and  _51
REMARK   23  A    between atoms: _54  and  _56
REMARK   24  A    between atoms: _56  and  _57
REMARK   25  A    between atoms: _59  and  _61
REMARK   26  A    between atoms: _61  and  _62
REMARK   27  A    between atoms: _65  and  _67
REMARK   28  A    between atoms: _67  and  _68
REMARK   29  A    between atoms: _67  and  _70
REMARK   30  A    between atoms: _70  and  _71
REMARK   31  A    between atoms: _74  and  _76
REMARK   32  A    between atoms: _76  and  _77
REMARK   33  A    between atoms: _76  and  _79
REMARK   34  A    between atoms: _79  and  _80
REMARK   35  A    between atoms: _85  and  _87
REMARK   36  A    between atoms: _87  and  _88
REMARK   37  A    between atoms: _87  and  _90
REMARK   38  A    between atoms: _90  and  _91
REMARK   39  A    between atoms: _94  and  _96
REMARK   40  A    between atoms: _96  and  _97
REMARK   41  A    between atoms: _96  and  _99
REMARK   42  A    between atoms: _102  and  _104
REMARK   43  A    between atoms: _104  and  _105
REMARK   44  A    between atoms: _104  and  _107
REMARK   45  A    between atoms: _107  and  _108
REMARK   46  A    between atoms: _108  and  _109
REMARK   47  A    between atoms: _109  and  _110
REMARK   48  A    between atoms: _110  and  _111
REMARK   49  A    between atoms: _115  and  _117
REMARK   50  A    between atoms: _117  and  _118
REMARK   51  A    between atoms: _117  and  _120
REMARK   52  A    between atoms: _120  and  _121
REMARK   53  A    between atoms: _124  and  _126
REMARK   54  A    between atoms: _126  and  _127
REMARK   55  A    between atoms: _129  and  _131
REMARK   56  A    between atoms: _131  and  _132
REMARK   57  A    between atoms: _134  and  _136
REMARK   58  A    between atoms: _136  and  _137
REMARK   59  A    between atoms: _136  and  _139
REMARK   60  A    between atoms: _139  and  _140
REMARK   61  A    between atoms: _143  and  _145
REMARK   62  A    between atoms: _145  and  _146
REMARK   63  A    between atoms: _148  and  _150
REMARK   64  A    between atoms: _150  and  _151
REMARK   65  A    between atoms: _153  and  _155
REMARK   66  A    between atoms: _155  and  _156
REMARK   67  A    between atoms: _155  and  _158
REMARK   68  A    between atoms: _158  and  _159
REMARK   69  A    between atoms: _162  and  _164
REMARK   70  A    between atoms: _164  and  _165
REMARK   71  A    between atoms: _164  and  _167
REMARK   72  A    between atoms: _167  and  _168
REMARK   73  A    between atoms: _172  and  _173
REMARK   74  A    between atoms: _178  and  _180
REMARK   75  A    between atoms: _180  and  _181
REMARK   76  A    between atoms: _180  and  _183
REMARK   77  A    between atoms: _183  and  _184
REMARK   78  A    between atoms: _188  and  _189
REMARK   79  A    between atoms: _194  and  _196
REMARK   80  A    between atoms: _196  and  _197
REMARK   81  A    between atoms: _196  and  _199
REMARK   82  A    between atoms: _202  and  _204
REMARK   83  A    between atoms: _204  and  _205
REMARK   84  A    between atoms: _204  and  _207
REMARK   85  A    between atoms: _207  and  _208
REMARK   86  A    between atoms: _213  and  _215
REMARK   87  A    between atoms: _215  and  _216
REMARK   88  A    between atoms: _215  and  _218
REMARK   89  A    between atoms: _218  and  _219
REMARK   90  A    between atoms: _222  and  _224
REMARK   91  A    between atoms: _224  and  _225
REMARK   92  A    between atoms: _224  and  _227
REMARK   93  A    between atoms: _227  and  _228
REMARK   94  A    between atoms: _231  and  _233
REMARK   95  A    between atoms: _233  and  _234
REMARK   96  A    between atoms: _236  and  _238
REMARK   97  A    between atoms: _238  and  _239
REMARK   98  A    between atoms: _238  and  _241
REMARK   99  A    between atoms: _241  and  _242
REMARK  100  A    between atoms: _242  and  _243
REMARK  101  A    between atoms: _243  and  _244
REMARK  102  A    between atoms: _253  and  _255
REMARK  103  A    between atoms: _255  and  _256
REMARK  104  A    between atoms: _255  and  _258
REMARK  105  A    between atoms: _258  and  _259
REMARK  106  A    between atoms: _264  and  _266
REMARK  107  A    between atoms: _266  and  _267
REMARK  108  A    between atoms: _266  and  _269
REMARK  109  A    between atoms: _269  and  _270
REMARK  110  A    between atoms: _270  and  _271
REMARK  111  A    between atoms: _271  and  _272
REMARK  112  A    between atoms: _281  and  _283
REMARK  113  A    between atoms: _283  and  _284
REMARK  114  A    between atoms: _283  and  _286
REMARK  115  A    between atoms: _286  and  _287
REMARK  116  A    between atoms: _290  and  _292
REMARK  117  A    between atoms: _292  and  _293
REMARK  118  A    between atoms: _292  and  _295
REMARK  119  A    between atoms: _295  and  _296
REMARK  120  A    between atoms: _299  and  _301
REMARK  121  A    between atoms: _301  and  _302
REMARK  122  A    between atoms: _301  and  _304
REMARK  123  A    between atoms: _304  and  _305
REMARK  124  A    between atoms: _308  and  _310
REMARK  125  A    between atoms: _310  and  _311
REMARK  126  A    between atoms: _310  and  _313
REMARK  127  A    between atoms: _313  and  _314
REMARK  128  A    between atoms: _317  and  _319
REMARK  129  A    between atoms: _319  and  _320
REMARK  130  A    between atoms: _319  and  _322
REMARK  131  A    between atoms: _322  and  _323
REMARK  132  A    between atoms: _326  and  _328
REMARK  133  A    between atoms: _328  and  _329
REMARK  134  A    between atoms: _331  and  _333
REMARK  135  A    between atoms: _333  and  _334
REMARK  136  A    between atoms: _337  and  _339
REMARK  137  A    between atoms: _339  and  _340
REMARK  138  A    between atoms: _339  and  _342
REMARK  139  A    between atoms: _342  and  _343
REMARK  140  A    between atoms: _346  and  _348
REMARK  141  A    between atoms: _348  and  _349
REMARK  142  A    between atoms: _348  and  _351
REMARK  143  A    between atoms: _351  and  _352
REMARK  144  A    between atoms: _357  and  _359
REMARK  145  A    between atoms: _359  and  _360
REMARK  146  A    between atoms: _359  and  _362
REMARK  147  A    between atoms: _362  and  _363
REMARK  148  A    between atoms: _366  and  _368
REMARK  149  A    between atoms: _368  and  _369
REMARK  150  A    between atoms: _368  and  _371
REMARK  151  A    between atoms: _374  and  _376
REMARK  152  A    between atoms: _376  and  _377
REMARK  153  A    between atoms: _376  and  _379
REMARK  154  A    between atoms: _379  and  _380
REMARK  155  A    between atoms: _380  and  _381
REMARK  156  A    between atoms: _381  and  _382
REMARK  157  A    between atoms: _382  and  _383
REMARK  158  A    between atoms: _387  and  _389
REMARK  159  A    between atoms: _389  and  _390
REMARK  160  A    between atoms: _389  and  _392
REMARK  161  A    between atoms: _392  and  _393
REMARK  162  A    between atoms: _393  and  _394
REMARK  163  A    between atoms: _396  and  _398
REMARK  164  A    between atoms: _398  and  _399
REMARK  165  A    between atoms: _398  and  _401
REMARK  166  A    between atoms: _401  and  _402
REMARK  167  A    between atoms: _405  and  _407
REMARK  168  A    between atoms: _407  and  _408
REMARK  169  A    between atoms: _410  and  _412
REMARK  170  A    between atoms: _412  and  _413
REMARK  171  A    between atoms: _415  and  _417
REMARK  172  A    between atoms: _417  and  _418
REMARK  173  A    between atoms: _417  and  _420
REMARK  174  A    between atoms: _420  and  _421
REMARK  175  A    between atoms: _424  and  _426
REMARK  176  A    between atoms: _426  and  _427
REMARK  177  A    between atoms: _429  and  _431
REMARK  178  A    between atoms: _431  and  _432
REMARK  179  A    between atoms: _434  and  _436
REMARK  180  A    between atoms: _436  and  _437
REMARK  181  A    between atoms: _436  and  _439
REMARK  182  A    between atoms: _439  and  _440
REMARK  183  A    between atoms: _446  and  _448
REMARK  184  A    between atoms: _448  and  _449
REMARK  185  A    between atoms: _448  and  _451
REMARK  186  A    between atoms: _451  and  _452
REMARK  187  A    between atoms: _455  and  _457
REMARK  188  A    between atoms: _457  and  _458
REMARK  189  A    between atoms: _457  and  _460
REMARK  190  A    between atoms: _463  and  _465
REMARK  191  A    between atoms: _465  and  _466
REMARK  192  A    between atoms: _465  and  _468
REMARK  193  A    between atoms: _468  and  _469
REMARK  194  A    between atoms: _472  and  _474
REMARK  195  A    between atoms: _474  and  _475
REMARK  196  A    between atoms: _474  and  _477
REMARK  197  A    between atoms: _477  and  _478
REMARK  198  A    between atoms: _482  and  _483
REMARK  199  A    between atoms: _488  and  _490
REMARK  200  A    between atoms: _490  and  _491
REMARK  201  A    between atoms: _490  and  _493
REMARK  202  A    between atoms: _496  and  _498
REMARK  203  A    between atoms: _498  and  _499
REMARK  204  A    between atoms: _498  and  _501
REMARK  205  A    between atoms: _501  and  _502
REMARK  206  A    between atoms: _507  and  _509
REMARK  207  A    between atoms: _509  and  _510
REMARK  208  A    between atoms: _509  and  _512
REMARK  209  A    between atoms: _512  and  _513
REMARK  210  A    between atoms: _516  and  _518
REMARK  211  A    between atoms: _518  and  _519
REMARK  212  A    between atoms: _518  and  _521
REMARK  213  A    between atoms: _521  and  _522
REMARK  214  A    between atoms: _525  and  _527
REMARK  215  A    between atoms: _527  and  _528
REMARK  216  A    between atoms: _530  and  _532
REMARK  217  A    between atoms: _532  and  _533
REMARK  218  A    between atoms: _532  and  _535
REMARK  219  A    between atoms: _535  and  _536
REMARK  220  A    between atoms: _536  and  _537
REMARK  221  A    between atoms: _537  and  _538
REMARK  222  A    between atoms: _547  and  _549
REMARK  223  A    between atoms: _549  and  _550
REMARK  224  A    between atoms: _549  and  _552
REMARK  225  A    between atoms: _552  and  _553
REMARK                            x       y       z     vdW  Elec       q    Type
REMARK                         _______ _______ _______ _____ _____    ______ ____
ROOT
ATOM      1  O   HOH     1      -9.861  54.908  17.941  0.00  0.00    +0.000 OA
ENDROOT
TORSDOF 0
REMARK  Name = ../refined-set-2016/2q63/2q63_pocket.pdb
REMARK  225 active torsions:
REMARK  status: ('A' for Active; 'I' for Inactive)
REMARK    1  A    between atoms: _1  and  _3
REMARK    2  A    between atoms: _3  and  _4
REMARK    3  A    between atoms: _3  and  _6
REMARK    4  A    between atoms: _6  and  _7
REMARK    5  A    between atoms: _7  and  _8
REMARK    6  A    between atoms: _8  and  _9
REMARK    7  A    between atoms: _18  and  _20
REMARK    8  A    between atoms: _20  and  _21
REMARK    9  A    between atoms: _20  and  _23
REMARK   10  A    between atoms: _23  and  _24
REMARK   11  A    between atoms: _27  and  _29
REMARK   12  A    between atoms: _29  and  _30
REMARK   13  A    between atoms: _29  and  _32
REMARK   14  A    between atoms: _32  and  _33
REMARK   15  A    between atoms: _36  and  _38
REMARK   16  A    between atoms: _38  and  _39
REMARK   17  A    between atoms: _38  and  _41
REMARK   18  A    between atoms: _41  and  _42
REMARK   19  A    between atoms: _45  and  _47
REMARK   20  A    between atoms: _47  and  _48
REMARK   21  A    between atoms: _47  and  _50
REMARK   22  A    between atoms: _50  and  _51
REMARK   23  A    between atoms: _54  and  _56
REMARK   24  A    between atoms: _56  and  _57
REMARK   25  A    between atoms: _59  and  _61
REMARK   26  A    between atoms: _61  and  _62
REMARK   27  A    between atoms: _65  and  _67
REMARK   28  A    between atoms: _67  and  _68
REMARK   29  A    between atoms: _67  and  _70
REMARK   30  A    between atoms: _70  and  _71
REMARK   31  A    between atoms: _74  and  _76
REMARK   32  A    between atoms: _76  and  _77
REMARK   33  A    between atoms: _76  and  _79
REMARK   34  A    between atoms: _79  and  _80
REMARK   35  A    between atoms: _85  and  _87
REMARK   36  A    between atoms: _87  and  _88
REMARK   37  A    between atoms: _87  and  _90
REMARK   38  A    between atoms: _90  and  _91
REMARK   39  A    between atoms: _94  and  _96
REMARK   40  A    between atoms: _96  and  _97
REMARK   41  A    between atoms: _96  and  _99
REMARK   42  A    between atoms: _102  and  _104
REMARK   43  A    between atoms: _104  and  _105
REMARK   44  A    between atoms: _104  and  _107
REMARK   45  A    between atoms: _107  and  _108
REMARK   46  A    between atoms: _108  and  _109
REMARK   47  A    between atoms: _109  and  _110
REMARK   48  A    between atoms: _110  and  _111
REMARK   49  A    between atoms: _115  and  _117
REMARK   50  A    between atoms: _117  and  _118
REMARK   51  A    between atoms: _117  and  _120
REMARK   52  A    between atoms: _120  and  _121
REMARK   53  A    between atoms: _124  and  _126
REMARK   54  A    between atoms: _126  and  _127
REMARK   55  A    between atoms: _129  and  _131
REMARK   56  A    between atoms: _131  and  _132
REMARK   57  A    between atoms: _134  and  _136
REMARK   58  A    between atoms: _136  and  _137
REMARK   59  A    between atoms: _136  and  _139
REMARK   60  A    between atoms: _139  and  _140
REMARK   61  A    between atoms: _143  and  _145
REMARK   62  A    between atoms: _145  and  _146
REMARK   63  A    between atoms: _148  and  _150
REMARK   64  A    between atoms: _150  and  _151
REMARK   65  A    between atoms: _153  and  _155
REMARK   66  A    between atoms: _155  and  _156
REMARK   67  A    between atoms: _155  and  _158
REMARK   68  A    between atoms: _158  and  _159
REMARK   69  A    between atoms: _162  and  _164
REMARK   70  A    between atoms: _164  and  _165
REMARK   71  A    between atoms: _164  and  _167
REMARK   72  A    between atoms: _167  and  _168
REMARK   73  A    between atoms: _172  and  _173
REMARK   74  A    between atoms: _178  and  _180
REMARK   75  A    between atoms: _180  and  _181
REMARK   76  A    between atoms: _180  and  _183
REMARK   77  A    between atoms: _183  and  _184
REMARK   78  A    between atoms: _188  and  _189
REMARK   79  A    between atoms: _194  and  _196
REMARK   80  A    between atoms: _196  and  _197
REMARK   81  A    between atoms: _196  and  _199
REMARK   82  A    between atoms: _202  and  _204
REMARK   83  A    between atoms: _204  and  _205
REMARK   84  A    between atoms: _204  and  _207
REMARK   85  A    between atoms: _207  and  _208
REMARK   86  A    between atoms: _213  and  _215
REMARK   87  A    between atoms: _215  and  _216
REMARK   88  A    between atoms: _215  and  _218
REMARK   89  A    between atoms: _218  and  _219
REMARK   90  A    between atoms: _222  and  _224
REMARK   91  A    between atoms: _224  and  _225
REMARK   92  A    between atoms: _224  and  _227
REMARK   93  A    between atoms: _227  and  _228
REMARK   94  A    between atoms: _231  and  _233
REMARK   95  A    between atoms: _233  and  _234
REMARK   96  A    between atoms: _236  and  _238
REMARK   97  A    between atoms: _238  and  _239
REMARK   98  A    between atoms: _238  and  _241
REMARK   99  A    between atoms: _241  and  _242
REMARK  100  A    between atoms: _242  and  _243
REMARK  101  A    between atoms: _243  and  _244
REMARK  102  A    between atoms: _253  and  _255
REMARK  103  A    between atoms: _255  and  _256
REMARK  104  A    between atoms: _255  and  _258
REMARK  105  A    between atoms: _258  and  _259
REMARK  106  A    between atoms: _264  and  _266
REMARK  107  A    between atoms: _266  and  _267
REMARK  108  A    between atoms: _266  and  _269
REMARK  109  A    between atoms: _269  and  _270
REMARK  110  A    between atoms: _270  and  _271
REMARK  111  A    between atoms: _271  and  _272
REMARK  112  A    between atoms: _281  and  _283
REMARK  113  A    between atoms: _283  and  _284
REMARK  114  A    between atoms: _283  and  _286
REMARK  115  A    between atoms: _286  and  _287
REMARK  116  A    between atoms: _290  and  _292
REMARK  117  A    between atoms: _292  and  _293
REMARK  118  A    between atoms: _292  and  _295
REMARK  119  A    between atoms: _295  and  _296
REMARK  120  A    between atoms: _299  and  _301
REMARK  121  A    between atoms: _301  and  _302
REMARK  122  A    between atoms: _301  and  _304
REMARK  123  A    between atoms: _304  and  _305
REMARK  124  A    between atoms: _308  and  _310
REMARK  125  A    between atoms: _310  and  _311
REMARK  126  A    between atoms: _310  and  _313
REMARK  127  A    between atoms: _313  and  _314
REMARK  128  A    between atoms: _317  and  _319
REMARK  129  A    between atoms: _319  and  _320
REMARK  130  A    between atoms: _319  and  _322
REMARK  131  A    between atoms: _322  and  _323
REMARK  132  A    between atoms: _326  and  _328
REMARK  133  A    between atoms: _328  and  _329
REMARK  134  A    between atoms: _331  and  _333
REMARK  135  A    between atoms: _333  and  _334
REMARK  136  A    between atoms: _337  and  _339
REMARK  137  A    between atoms: _339  and  _340
REMARK  138  A    between atoms: _339  and  _342
REMARK  139  A    between atoms: _342  and  _343
REMARK  140  A    between atoms: _346  and  _348
REMARK  141  A    between atoms: _348  and  _349
REMARK  142  A    between atoms: _348  and  _351
REMARK  143  A    between atoms: _351  and  _352
REMARK  144  A    between atoms: _357  and  _359
REMARK  145  A    between atoms: _359  and  _360
REMARK  146  A    between atoms: _359  and  _362
REMARK  147  A    between atoms: _362  and  _363
REMARK  148  A    between atoms: _366  and  _368
REMARK  149  A    between atoms: _368  and  _369
REMARK  150  A    between atoms: _368  and  _371
REMARK  151  A    between atoms: _374  and  _376
REMARK  152  A    between atoms: _376  and  _377
REMARK  153  A    between atoms: _376  and  _379
REMARK  154  A    between atoms: _379  and  _380
REMARK  155  A    between atoms: _380  and  _381
REMARK  156  A    between atoms: _381  and  _382
REMARK  157  A    between atoms: _382  and  _383
REMARK  158  A    between atoms: _387  and  _389
REMARK  159  A    between atoms: _389  and  _390
REMARK  160  A    between atoms: _389  and  _392
REMARK  161  A    between atoms: _392  and  _393
REMARK  162  A    between atoms: _393  and  _394
REMARK  163  A    between atoms: _396  and  _398
REMARK  164  A    between atoms: _398  and  _399
REMARK  165  A    between atoms: _398  and  _401
REMARK  166  A    between atoms: _401  and  _402
REMARK  167  A    between atoms: _405  and  _407
REMARK  168  A    between atoms: _407  and  _408
REMARK  169  A    between atoms: _410  and  _412
REMARK  170  A    between atoms: _412  and  _413
REMARK  171  A    between atoms: _415  and  _417
REMARK  172  A    between atoms: _417  and  _418
REMARK  173  A    between atoms: _417  and  _420
REMARK  174  A    between atoms: _420  and  _421
REMARK  175  A    between atoms: _424  and  _426
REMARK  176  A    between atoms: _426  and  _427
REMARK  177  A    between atoms: _429  and  _431
REMARK  178  A    between atoms: _431  and  _432
REMARK  179  A    between atoms: _434  and  _436
REMARK  180  A    between atoms: _436  and  _437
REMARK  181  A    between atoms: _436  and  _439
REMARK  182  A    between atoms: _439  and  _440
REMARK  183  A    between atoms: _446  and  _448
REMARK  184  A    between atoms: _448  and  _449
REMARK  185  A    between atoms: _448  and  _451
REMARK  186  A    between atoms: _451  and  _452
REMARK  187  A    between atoms: _455  and  _457
REMARK  188  A    between atoms: _457  and  _458
REMARK  189  A    between atoms: _457  and  _460
REMARK  190  A    between atoms: _463  and  _465
REMARK  191  A    between atoms: _465  and  _466
REMARK  192  A    between atoms: _465  and  _468
REMARK  193  A    between atoms: _468  and  _469
REMARK  194  A    between atoms: _472  and  _474
REMARK  195  A    between atoms: _474  and  _475
REMARK  196  A    between atoms: _474  and  _477
REMARK  197  A    between atoms: _477  and  _478
REMARK  198  A    between atoms: _482  and  _483
REMARK  199  A    between atoms: _488  and  _490
REMARK  200  A    between atoms: _490  and  _491
REMARK  201  A    between atoms: _490  and  _493
REMARK  202  A    between atoms: _496  and  _498
REMARK  203  A    between atoms: _498  and  _499
REMARK  204  A    between atoms: _498  and  _501
REMARK  205  A    between atoms: _501  and  _502
REMARK  206  A    between atoms: _507  and  _509
REMARK  207  A    between atoms: _509  and  _510
REMARK  208  A    between atoms: _509  and  _512
REMARK  209  A    between atoms: _512  and  _513
REMARK  210  A    between atoms: _516  and  _518
REMARK  211  A    between atoms: _518  and  _519
REMARK  212  A    between atoms: _518  and  _521
REMARK  213  A    between atoms: _521  and  _522
REMARK  214  A    between atoms: _525  and  _527
REMARK  215  A    between atoms: _527  and  _528
REMARK  216  A    between atoms: _530  and  _532
REMARK  217  A    between atoms: _532  and  _533
REMARK  218  A    between atoms: _532  and  _535
REMARK  219  A    between atoms: _535  and  _536
REMARK  220  A    between atoms: _536  and  _537
REMARK  221  A    between atoms: _537  and  _538
REMARK  222  A    between atoms: _547  and  _549
REMARK  223  A    between atoms: _549  and  _550
REMARK  224  A    between atoms: _549  and  _552
REMARK  225  A    between atoms: _552  and  _553
REMARK                            x       y       z     vdW  Elec       q    Type
REMARK                         _______ _______ _______ _____ _____    ______ ____
ROOT
ATOM      1  O   HOH     1      -9.283  59.757   8.272  0.00  0.00    +0.000 OA
ENDROOT
TORSDOF 0
REMARK  Name = ../refined-set-2016/2q63/2q63_pocket.pdb
REMARK  225 active torsions:
REMARK  status: ('A' for Active; 'I' for Inactive)
REMARK    1  A    between atoms: _1  and  _3
REMARK    2  A    between atoms: _3  and  _4
REMARK    3  A    between atoms: _3  and  _6
REMARK    4  A    between atoms: _6  and  _7
REMARK    5  A    between atoms: _7  and  _8
REMARK    6  A    between atoms: _8  and  _9
REMARK    7  A    between atoms: _18  and  _20
REMARK    8  A    between atoms: _20  and  _21
REMARK    9  A    between atoms: _20  and  _23
REMARK   10  A    between atoms: _23  and  _24
REMARK   11  A    between atoms: _27  and  _29
REMARK   12  A    between atoms: _29  and  _30
REMARK   13  A    between atoms: _29  and  _32
REMARK   14  A    between atoms: _32  and  _33
REMARK   15  A    between atoms: _36  and  _38
REMARK   16  A    between atoms: _38  and  _39
REMARK   17  A    between atoms: _38  and  _41
REMARK   18  A    between atoms: _41  and  _42
REMARK   19  A    between atoms: _45  and  _47
REMARK   20  A    between atoms: _47  and  _48
REMARK   21  A    between atoms: _47  and  _50
REMARK   22  A    between atoms: _50  and  _51
REMARK   23  A    between atoms: _54  and  _56
REMARK   24  A    between atoms: _56  and  _57
REMARK   25  A    between atoms: _59  and  _61
REMARK   26  A    between atoms: _61  and  _62
REMARK   27  A    between atoms: _65  and  _67
REMARK   28  A    between atoms: _67  and  _68
REMARK   29  A    between atoms: _67  and  _70
REMARK   30  A    between atoms: _70  and  _71
REMARK   31  A    between atoms: _74  and  _76
REMARK   32  A    between atoms: _76  and  _77
REMARK   33  A    between atoms: _76  and  _79
REMARK   34  A    between atoms: _79  and  _80
REMARK   35  A    between atoms: _85  and  _87
REMARK   36  A    between atoms: _87  and  _88
REMARK   37  A    between atoms: _87  and  _90
REMARK   38  A    between atoms: _90  and  _91
REMARK   39  A    between atoms: _94  and  _96
REMARK   40  A    between atoms: _96  and  _97
REMARK   41  A    between atoms: _96  and  _99
REMARK   42  A    between atoms: _102  and  _104
REMARK   43  A    between atoms: _104  and  _105
REMARK   44  A    between atoms: _104  and  _107
REMARK   45  A    between atoms: _107  and  _108
REMARK   46  A    between atoms: _108  and  _109
REMARK   47  A    between atoms: _109  and  _110
REMARK   48  A    between atoms: _110  and  _111
REMARK   49  A    between atoms: _115  and  _117
REMARK   50  A    between atoms: _117  and  _118
REMARK   51  A    between atoms: _117  and  _120
REMARK   52  A    between atoms: _120  and  _121
REMARK   53  A    between atoms: _124  and  _126
REMARK   54  A    between atoms: _126  and  _127
REMARK   55  A    between atoms: _129  and  _131
REMARK   56  A    between atoms: _131  and  _132
REMARK   57  A    between atoms: _134  and  _136
REMARK   58  A    between atoms: _136  and  _137
REMARK   59  A    between atoms: _136  and  _139
REMARK   60  A    between atoms: _139  and  _140
REMARK   61  A    between atoms: _143  and  _145
REMARK   62  A    between atoms: _145  and  _146
REMARK   63  A    between atoms: _148  and  _150
REMARK   64  A    between atoms: _150  and  _151
REMARK   65  A    between atoms: _153  and  _155
REMARK   66  A    between atoms: _155  and  _156
REMARK   67  A    between atoms: _155  and  _158
REMARK   68  A    between atoms: _158  and  _159
REMARK   69  A    between atoms: _162  and  _164
REMARK   70  A    between atoms: _164  and  _165
REMARK   71  A    between atoms: _164  and  _167
REMARK   72  A    between atoms: _167  and  _168
REMARK   73  A    between atoms: _172  and  _173
REMARK   74  A    between atoms: _178  and  _180
REMARK   75  A    between atoms: _180  and  _181
REMARK   76  A    between atoms: _180  and  _183
REMARK   77  A    between atoms: _183  and  _184
REMARK   78  A    between atoms: _188  and  _189
REMARK   79  A    between atoms: _194  and  _196
REMARK   80  A    between atoms: _196  and  _197
REMARK   81  A    between atoms: _196  and  _199
REMARK   82  A    between atoms: _202  and  _204
REMARK   83  A    between atoms: _204  and  _205
REMARK   84  A    between atoms: _204  and  _207
REMARK   85  A    between atoms: _207  and  _208
REMARK   86  A    between atoms: _213  and  _215
REMARK   87  A    between atoms: _215  and  _216
REMARK   88  A    between atoms: _215  and  _218
REMARK   89  A    between atoms: _218  and  _219
REMARK   90  A    between atoms: _222  and  _224
REMARK   91  A    between atoms: _224  and  _225
REMARK   92  A    between atoms: _224  and  _227
REMARK   93  A    between atoms: _227  and  _228
REMARK   94  A    between atoms: _231  and  _233
REMARK   95  A    between atoms: _233  and  _234
REMARK   96  A    between atoms: _236  and  _238
REMARK   97  A    between atoms: _238  and  _239
REMARK   98  A    between atoms: _238  and  _241
REMARK   99  A    between atoms: _241  and  _242
REMARK  100  A    between atoms: _242  and  _243
REMARK  101  A    between atoms: _243  and  _244
REMARK  102  A    between atoms: _253  and  _255
REMARK  103  A    between atoms: _255  and  _256
REMARK  104  A    between atoms: _255  and  _258
REMARK  105  A    between atoms: _258  and  _259
REMARK  106  A    between atoms: _264  and  _266
REMARK  107  A    between atoms: _266  and  _267
REMARK  108  A    between atoms: _266  and  _269
REMARK  109  A    between atoms: _269  and  _270
REMARK  110  A    between atoms: _270  and  _271
REMARK  111  A    between atoms: _271  and  _272
REMARK  112  A    between atoms: _281  and  _283
REMARK  113  A    between atoms: _283  and  _284
REMARK  114  A    between atoms: _283  and  _286
REMARK  115  A    between atoms: _286  and  _287
REMARK  116  A    between atoms: _290  and  _292
REMARK  117  A    between atoms: _292  and  _293
REMARK  118  A    between atoms: _292  and  _295
REMARK  119  A    between atoms: _295  and  _296
REMARK  120  A    between atoms: _299  and  _301
REMARK  121  A    between atoms: _301  and  _302
REMARK  122  A    between atoms: _301  and  _304
REMARK  123  A    between atoms: _304  and  _305
REMARK  124  A    between atoms: _308  and  _310
REMARK  125  A    between atoms: _310  and  _311
REMARK  126  A    between atoms: _310  and  _313
REMARK  127  A    between atoms: _313  and  _314
REMARK  128  A    between atoms: _317  and  _319
REMARK  129  A    between atoms: _319  and  _320
REMARK  130  A    between atoms: _319  and  _322
REMARK  131  A    between atoms: _322  and  _323
REMARK  132  A    between atoms: _326  and  _328
REMARK  133  A    between atoms: _328  and  _329
REMARK  134  A    between atoms: _331  and  _333
REMARK  135  A    between atoms: _333  and  _334
REMARK  136  A    between atoms: _337  and  _339
REMARK  137  A    between atoms: _339  and  _340
REMARK  138  A    between atoms: _339  and  _342
REMARK  139  A    between atoms: _342  and  _343
REMARK  140  A    between atoms: _346  and  _348
REMARK  141  A    between atoms: _348  and  _349
REMARK  142  A    between atoms: _348  and  _351
REMARK  143  A    between atoms: _351  and  _352
REMARK  144  A    between atoms: _357  and  _359
REMARK  145  A    between atoms: _359  and  _360
REMARK  146  A    between atoms: _359  and  _362
REMARK  147  A    between atoms: _362  and  _363
REMARK  148  A    between atoms: _366  and  _368
REMARK  149  A    between atoms: _368  and  _369
REMARK  150  A    between atoms: _368  and  _371
REMARK  151  A    between atoms: _374  and  _376
REMARK  152  A    between atoms: _376  and  _377
REMARK  153  A    between atoms: _376  and  _379
REMARK  154  A    between atoms: _379  and  _380
REMARK  155  A    between atoms: _380  and  _381
REMARK  156  A    between atoms: _381  and  _382
REMARK  157  A    between atoms: _382  and  _383
REMARK  158  A    between atoms: _387  and  _389
REMARK  159  A    between atoms: _389  and  _390
REMARK  160  A    between atoms: _389  and  _392
REMARK  161  A    between atoms: _392  and  _393
REMARK  162  A    between atoms: _393  and  _394
REMARK  163  A    between atoms: _396  and  _398
REMARK  164  A    between atoms: _398  and  _399
REMARK  165  A    between atoms: _398  and  _401
REMARK  166  A    between atoms: _401  and  _402
REMARK  167  A    between atoms: _405  and  _407
REMARK  168  A    between atoms: _407  and  _408
REMARK  169  A    between atoms: _410  and  _412
REMARK  170  A    between atoms: _412  and  _413
REMARK  171  A    between atoms: _415  and  _417
REMARK  172  A    between atoms: _417  and  _418
REMARK  173  A    between atoms: _417  and  _420
REMARK  174  A    between atoms: _420  and  _421
REMARK  175  A    between atoms: _424  and  _426
REMARK  176  A    between atoms: _426  and  _427
REMARK  177  A    between atoms: _429  and  _431
REMARK  178  A    between atoms: _431  and  _432
REMARK  179  A    between atoms: _434  and  _436
REMARK  180  A    between atoms: _436  and  _437
REMARK  181  A    between atoms: _436  and  _439
REMARK  182  A    between atoms: _439  and  _440
REMARK  183  A    between atoms: _446  and  _448
REMARK  184  A    between atoms: _448  and  _449
REMARK  185  A    between atoms: _448  and  _451
REMARK  186  A    between atoms: _451  and  _452
REMARK  187  A    between atoms: _455  and  _457
REMARK  188  A    between atoms: _457  and  _458
REMARK  189  A    between atoms: _457  and  _460
REMARK  190  A    between atoms: _463  and  _465
REMARK  191  A    between atoms: _465  and  _466
REMARK  192  A    between atoms: _465  and  _468
REMARK  193  A    between atoms: _468  and  _469
REMARK  194  A    between atoms: _472  and  _474
REMARK  195  A    between atoms: _474  and  _475
REMARK  196  A    between atoms: _474  and  _477
REMARK  197  A    between atoms: _477  and  _478
REMARK  198  A    between atoms: _482  and  _483
REMARK  199  A    between atoms: _488  and  _490
REMARK  200  A    between atoms: _490  and  _491
REMARK  201  A    between atoms: _490  and  _493
REMARK  202  A    between atoms: _496  and  _498
REMARK  203  A    between atoms: _498  and  _499
REMARK  204  A    between atoms: _498  and  _501
REMARK  205  A    between atoms: _501  and  _502
REMARK  206  A    between atoms: _507  and  _509
REMARK  207  A    between atoms: _509  and  _510
REMARK  208  A    between atoms: _509  and  _512
REMARK  209  A    between atoms: _512  and  _513
REMARK  210  A    between atoms: _516  and  _518
REMARK  211  A    between atoms: _518  and  _519
REMARK  212  A    between atoms: _518  and  _521
REMARK  213  A    between atoms: _521  and  _522
REMARK  214  A    between atoms: _525  and  _527
REMARK  215  A    between atoms: _527  and  _528
REMARK  216  A    between atoms: _530  and  _532
REMARK  217  A    between atoms: _532  and  _533
REMARK  218  A    between atoms: _532  and  _535
REMARK  219  A    between atoms: _535  and  _536
REMARK  220  A    between atoms: _536  and  _537
REMARK  221  A    between atoms: _537  and  _538
REMARK  222  A    between atoms: _547  and  _549
REMARK  223  A    between atoms: _549  and  _550
REMARK  224  A    between atoms: _549  and  _552
REMARK  225  A    between atoms: _552  and  _553
REMARK                            x       y       z     vdW  Elec       q    Type
REMARK                         _______ _______ _______ _____ _____    ______ ____
ROOT
ATOM      1  O   HOH     1     -13.796  41.063   3.249  0.00  0.00    +0.000 OA
ENDROOT
TORSDOF 0
REMARK  Name = ../refined-set-2016/2q63/2q63_pocket.pdb
REMARK  225 active torsions:
REMARK  status: ('A' for Active; 'I' for Inactive)
REMARK    1  A    between atoms: _1  and  _3
REMARK    2  A    between atoms: _3  and  _4
REMARK    3  A    between atoms: _3  and  _6
REMARK    4  A    between atoms: _6  and  _7
REMARK    5  A    between atoms: _7  and  _8
REMARK    6  A    between atoms: _8  and  _9
REMARK    7  A    between atoms: _18  and  _20
REMARK    8  A    between atoms: _20  and  _21
REMARK    9  A    between atoms: _20  and  _23
REMARK   10  A    between atoms: _23  and  _24
REMARK   11  A    between atoms: _27  and  _29
REMARK   12  A    between atoms: _29  and  _30
REMARK   13  A    between atoms: _29  and  _32
REMARK   14  A    between atoms: _32  and  _33
REMARK   15  A    between atoms: _36  and  _38
REMARK   16  A    between atoms: _38  and  _39
REMARK   17  A    between atoms: _38  and  _41
REMARK   18  A    between atoms: _41  and  _42
REMARK   19  A    between atoms: _45  and  _47
REMARK   20  A    between atoms: _47  and  _48
REMARK   21  A    between atoms: _47  and  _50
REMARK   22  A    between atoms: _50  and  _51
REMARK   23  A    between atoms: _54  and  _56
REMARK   24  A    between atoms: _56  and  _57
REMARK   25  A    between atoms: _59  and  _61
REMARK   26  A    between atoms: _61  and  _62
REMARK   27  A    between atoms: _65  and  _67
REMARK   28  A    between atoms: _67  and  _68
REMARK   29  A    between atoms: _67  and  _70
REMARK   30  A    between atoms: _70  and  _71
REMARK   31  A    between atoms: _74  and  _76
REMARK   32  A    between atoms: _76  and  _77
REMARK   33  A    between atoms: _76  and  _79
REMARK   34  A    between atoms: _79  and  _80
REMARK   35  A    between atoms: _85  and  _87
REMARK   36  A    between atoms: _87  and  _88
REMARK   37  A    between atoms: _87  and  _90
REMARK   38  A    between atoms: _90  and  _91
REMARK   39  A    between atoms: _94  and  _96
REMARK   40  A    between atoms: _96  and  _97
REMARK   41  A    between atoms: _96  and  _99
REMARK   42  A    between atoms: _102  and  _104
REMARK   43  A    between atoms: _104  and  _105
REMARK   44  A    between atoms: _104  and  _107
REMARK   45  A    between atoms: _107  and  _108
REMARK   46  A    between atoms: _108  and  _109
REMARK   47  A    between atoms: _109  and  _110
REMARK   48  A    between atoms: _110  and  _111
REMARK   49  A    between atoms: _115  and  _117
REMARK   50  A    between atoms: _117  and  _118
REMARK   51  A    between atoms: _117  and  _120
REMARK   52  A    between atoms: _120  and  _121
REMARK   53  A    between atoms: _124  and  _126
REMARK   54  A    between atoms: _126  and  _127
REMARK   55  A    between atoms: _129  and  _131
REMARK   56  A    between atoms: _131  and  _132
REMARK   57  A    between atoms: _134  and  _136
REMARK   58  A    between atoms: _136  and  _137
REMARK   59  A    between atoms: _136  and  _139
REMARK   60  A    between atoms: _139  and  _140
REMARK   61  A    between atoms: _143  and  _145
REMARK   62  A    between atoms: _145  and  _146
REMARK   63  A    between atoms: _148  and  _150
REMARK   64  A    between atoms: _150  and  _151
REMARK   65  A    between atoms: _153  and  _155
REMARK   66  A    between atoms: _155  and  _156
REMARK   67  A    between atoms: _155  and  _158
REMARK   68  A    between atoms: _158  and  _159
REMARK   69  A    between atoms: _162  and  _164
REMARK   70  A    between atoms: _164  and  _165
REMARK   71  A    between atoms: _164  and  _167
REMARK   72  A    between atoms: _167  and  _168
REMARK   73  A    between atoms: _172  and  _173
REMARK   74  A    between atoms: _178  and  _180
REMARK   75  A    between atoms: _180  and  _181
REMARK   76  A    between atoms: _180  and  _183
REMARK   77  A    between atoms: _183  and  _184
REMARK   78  A    between atoms: _188  and  _189
REMARK   79  A    between atoms: _194  and  _196
REMARK   80  A    between atoms: _196  and  _197
REMARK   81  A    between atoms: _196  and  _199
REMARK   82  A    between atoms: _202  and  _204
REMARK   83  A    between atoms: _204  and  _205
REMARK   84  A    between atoms: _204  and  _207
REMARK   85  A    between atoms: _207  and  _208
REMARK   86  A    between atoms: _213  and  _215
REMARK   87  A    between atoms: _215  and  _216
REMARK   88  A    between atoms: _215  and  _218
REMARK   89  A    between atoms: _218  and  _219
REMARK   90  A    between atoms: _222  and  _224
REMARK   91  A    between atoms: _224  and  _225
REMARK   92  A    between atoms: _224  and  _227
REMARK   93  A    between atoms: _227  and  _228
REMARK   94  A    between atoms: _231  and  _233
REMARK   95  A    between atoms: _233  and  _234
REMARK   96  A    between atoms: _236  and  _238
REMARK   97  A    between atoms: _238  and  _239
REMARK   98  A    between atoms: _238  and  _241
REMARK   99  A    between atoms: _241  and  _242
REMARK  100  A    between atoms: _242  and  _243
REMARK  101  A    between atoms: _243  and  _244
REMARK  102  A    between atoms: _253  and  _255
REMARK  103  A    between atoms: _255  and  _256
REMARK  104  A    between atoms: _255  and  _258
REMARK  105  A    between atoms: _258  and  _259
REMARK  106  A    between atoms: _264  and  _266
REMARK  107  A    between atoms: _266  and  _267
REMARK  108  A    between atoms: _266  and  _269
REMARK  109  A    between atoms: _269  and  _270
REMARK  110  A    between atoms: _270  and  _271
REMARK  111  A    between atoms: _271  and  _272
REMARK  112  A    between atoms: _281  and  _283
REMARK  113  A    between atoms: _283  and  _284
REMARK  114  A    between atoms: _283  and  _286
REMARK  115  A    between atoms: _286  and  _287
REMARK  116  A    between atoms: _290  and  _292
REMARK  117  A    between atoms: _292  and  _293
REMARK  118  A    between atoms: _292  and  _295
REMARK  119  A    between atoms: _295  and  _296
REMARK  120  A    between atoms: _299  and  _301
REMARK  121  A    between atoms: _301  and  _302
REMARK  122  A    between atoms: _301  and  _304
REMARK  123  A    between atoms: _304  and  _305
REMARK  124  A    between atoms: _308  and  _310
REMARK  125  A    between atoms: _310  and  _311
REMARK  126  A    between atoms: _310  and  _313
REMARK  127  A    between atoms: _313  and  _314
REMARK  128  A    between atoms: _317  and  _319
REMARK  129  A    between atoms: _319  and  _320
REMARK  130  A    between atoms: _319  and  _322
REMARK  131  A    between atoms: _322  and  _323
REMARK  132  A    between atoms: _326  and  _328
REMARK  133  A    between atoms: _328  and  _329
REMARK  134  A    between atoms: _331  and  _333
REMARK  135  A    between atoms: _333  and  _334
REMARK  136  A    between atoms: _337  and  _339
REMARK  137  A    between atoms: _339  and  _340
REMARK  138  A    between atoms: _339  and  _342
REMARK  139  A    between atoms: _342  and  _343
REMARK  140  A    between atoms: _346  and  _348
REMARK  141  A    between atoms: _348  and  _349
REMARK  142  A    between atoms: _348  and  _351
REMARK  143  A    between atoms: _351  and  _352
REMARK  144  A    between atoms: _357  and  _359
REMARK  145  A    between atoms: _359  and  _360
REMARK  146  A    between atoms: _359  and  _362
REMARK  147  A    between atoms: _362  and  _363
REMARK  148  A    between atoms: _366  and  _368
REMARK  149  A    between atoms: _368  and  _369
REMARK  150  A    between atoms: _368  and  _371
REMARK  151  A    between atoms: _374  and  _376
REMARK  152  A    between atoms: _376  and  _377
REMARK  153  A    between atoms: _376  and  _379
REMARK  154  A    between atoms: _379  and  _380
REMARK  155  A    between atoms: _380  and  _381
REMARK  156  A    between atoms: _381  and  _382
REMARK  157  A    between atoms: _382  and  _383
REMARK  158  A    between atoms: _387  and  _389
REMARK  159  A    between atoms: _389  and  _390
REMARK  160  A    between atoms: _389  and  _392
REMARK  161  A    between atoms: _392  and  _393
REMARK  162  A    between atoms: _393  and  _394
REMARK  163  A    between atoms: _396  and  _398
REMARK  164  A    between atoms: _398  and  _399
REMARK  165  A    between atoms: _398  and  _401
REMARK  166  A    between atoms: _401  and  _402
REMARK  167  A    between atoms: _405  and  _407
REMARK  168  A    between atoms: _407  and  _408
REMARK  169  A    between atoms: _410  and  _412
REMARK  170  A    between atoms: _412  and  _413
REMARK  171  A    between atoms: _415  and  _417
REMARK  172  A    between atoms: _417  and  _418
REMARK  173  A    between atoms: _417  and  _420
REMARK  174  A    between atoms: _420  and  _421
REMARK  175  A    between atoms: _424  and  _426
REMARK  176  A    between atoms: _426  and  _427
REMARK  177  A    between atoms: _429  and  _431
REMARK  178  A    between atoms: _431  and  _432
REMARK  179  A    between atoms: _434  and  _436
REMARK  180  A    between atoms: _436  and  _437
REMARK  181  A    between atoms: _436  and  _439
REMARK  182  A    between atoms: _439  and  _440
REMARK  183  A    between atoms: _446  and  _448
REMARK  184  A    between atoms: _448  and  _449
REMARK  185  A    between atoms: _448  and  _451
REMARK  186  A    between atoms: _451  and  _452
REMARK  187  A    between atoms: _455  and  _457
REMARK  188  A    between atoms: _457  and  _458
REMARK  189  A    between atoms: _457  and  _460
REMARK  190  A    between atoms: _463  and  _465
REMARK  191  A    between atoms: _465  and  _466
REMARK  192  A    between atoms: _465  and  _468
REMARK  193  A    between atoms: _468  and  _469
REMARK  194  A    between atoms: _472  and  _474
REMARK  195  A    between atoms: _474  and  _475
REMARK  196  A    between atoms: _474  and  _477
REMARK  197  A    between atoms: _477  and  _478
REMARK  198  A    between atoms: _482  and  _483
REMARK  199  A    between atoms: _488  and  _490
REMARK  200  A    between atoms: _490  and  _491
REMARK  201  A    between atoms: _490  and  _493
REMARK  202  A    between atoms: _496  and  _498
REMARK  203  A    between atoms: _498  and  _499
REMARK  204  A    between atoms: _498  and  _501
REMARK  205  A    between atoms: _501  and  _502
REMARK  206  A    between atoms: _507  and  _509
REMARK  207  A    between atoms: _509  and  _510
REMARK  208  A    between atoms: _509  and  _512
REMARK  209  A    between atoms: _512  and  _513
REMARK  210  A    between atoms: _516  and  _518
REMARK  211  A    between atoms: _518  and  _519
REMARK  212  A    between atoms: _518  and  _521
REMARK  213  A    between atoms: _521  and  _522
REMARK  214  A    between atoms: _525  and  _527
REMARK  215  A    between atoms: _527  and  _528
REMARK  216  A    between atoms: _530  and  _532
REMARK  217  A    between atoms: _532  and  _533
REMARK  218  A    between atoms: _532  and  _535
REMARK  219  A    between atoms: _535  and  _536
REMARK  220  A    between atoms: _536  and  _537
REMARK  221  A    between atoms: _537  and  _538
REMARK  222  A    between atoms: _547  and  _549
REMARK  223  A    between atoms: _549  and  _550
REMARK  224  A    between atoms: _549  and  _552
REMARK  225  A    between atoms: _552  and  _553
REMARK                            x       y       z     vdW  Elec       q    Type
REMARK                         _______ _______ _______ _____ _____    ______ ____
ROOT
ATOM      1  O   HOH     1      -9.773  43.117   1.244  0.00  0.00    +0.000 OA
ENDROOT
TORSDOF 0
REMARK  Name = ../refined-set-2016/2q63/2q63_pocket.pdb
REMARK  225 active torsions:
REMARK  status: ('A' for Active; 'I' for Inactive)
REMARK    1  A    between atoms: _1  and  _3
REMARK    2  A    between atoms: _3  and  _4
REMARK    3  A    between atoms: _3  and  _6
REMARK    4  A    between atoms: _6  and  _7
REMARK    5  A    between atoms: _7  and  _8
REMARK    6  A    between atoms: _8  and  _9
REMARK    7  A    between atoms: _18  and  _20
REMARK    8  A    between atoms: _20  and  _21
REMARK    9  A    between atoms: _20  and  _23
REMARK   10  A    between atoms: _23  and  _24
REMARK   11  A    between atoms: _27  and  _29
REMARK   12  A    between atoms: _29  and  _30
REMARK   13  A    between atoms: _29  and  _32
REMARK   14  A    between atoms: _32  and  _33
REMARK   15  A    between atoms: _36  and  _38
REMARK   16  A    between atoms: _38  and  _39
REMARK   17  A    between atoms: _38  and  _41
REMARK   18  A    between atoms: _41  and  _42
REMARK   19  A    between atoms: _45  and  _47
REMARK   20  A    between atoms: _47  and  _48
REMARK   21  A    between atoms: _47  and  _50
REMARK   22  A    between atoms: _50  and  _51
REMARK   23  A    between atoms: _54  and  _56
REMARK   24  A    between atoms: _56  and  _57
REMARK   25  A    between atoms: _59  and  _61
REMARK   26  A    between atoms: _61  and  _62
REMARK   27  A    between atoms: _65  and  _67
REMARK   28  A    between atoms: _67  and  _68
REMARK   29  A    between atoms: _67  and  _70
REMARK   30  A    between atoms: _70  and  _71
REMARK   31  A    between atoms: _74  and  _76
REMARK   32  A    between atoms: _76  and  _77
REMARK   33  A    between atoms: _76  and  _79
REMARK   34  A    between atoms: _79  and  _80
REMARK   35  A    between atoms: _85  and  _87
REMARK   36  A    between atoms: _87  and  _88
REMARK   37  A    between atoms: _87  and  _90
REMARK   38  A    between atoms: _90  and  _91
REMARK   39  A    between atoms: _94  and  _96
REMARK   40  A    between atoms: _96  and  _97
REMARK   41  A    between atoms: _96  and  _99
REMARK   42  A    between atoms: _102  and  _104
REMARK   43  A    between atoms: _104  and  _105
REMARK   44  A    between atoms: _104  and  _107
REMARK   45  A    between atoms: _107  and  _108
REMARK   46  A    between atoms: _108  and  _109
REMARK   47  A    between atoms: _109  and  _110
REMARK   48  A    between atoms: _110  and  _111
REMARK   49  A    between atoms: _115  and  _117
REMARK   50  A    between atoms: _117  and  _118
REMARK   51  A    between atoms: _117  and  _120
REMARK   52  A    between atoms: _120  and  _121
REMARK   53  A    between atoms: _124  and  _126
REMARK   54  A    between atoms: _126  and  _127
REMARK   55  A    between atoms: _129  and  _131
REMARK   56  A    between atoms: _131  and  _132
REMARK   57  A    between atoms: _134  and  _136
REMARK   58  A    between atoms: _136  and  _137
REMARK   59  A    between atoms: _136  and  _139
REMARK   60  A    between atoms: _139  and  _140
REMARK   61  A    between atoms: _143  and  _145
REMARK   62  A    between atoms: _145  and  _146
REMARK   63  A    between atoms: _148  and  _150
REMARK   64  A    between atoms: _150  and  _151
REMARK   65  A    between atoms: _153  and  _155
REMARK   66  A    between atoms: _155  and  _156
REMARK   67  A    between atoms: _155  and  _158
REMARK   68  A    between atoms: _158  and  _159
REMARK   69  A    between atoms: _162  and  _164
REMARK   70  A    between atoms: _164  and  _165
REMARK   71  A    between atoms: _164  and  _167
REMARK   72  A    between atoms: _167  and  _168
REMARK   73  A    between atoms: _172  and  _173
REMARK   74  A    between atoms: _178  and  _180
REMARK   75  A    between atoms: _180  and  _181
REMARK   76  A    between atoms: _180  and  _183
REMARK   77  A    between atoms: _183  and  _184
REMARK   78  A    between atoms: _188  and  _189
REMARK   79  A    between atoms: _194  and  _196
REMARK   80  A    between atoms: _196  and  _197
REMARK   81  A    between atoms: _196  and  _199
REMARK   82  A    between atoms: _202  and  _204
REMARK   83  A    between atoms: _204  and  _205
REMARK   84  A    between atoms: _204  and  _207
REMARK   85  A    between atoms: _207  and  _208
REMARK   86  A    between atoms: _213  and  _215
REMARK   87  A    between atoms: _215  and  _216
REMARK   88  A    between atoms: _215  and  _218
REMARK   89  A    between atoms: _218  and  _219
REMARK   90  A    between atoms: _222  and  _224
REMARK   91  A    between atoms: _224  and  _225
REMARK   92  A    between atoms: _224  and  _227
REMARK   93  A    between atoms: _227  and  _228
REMARK   94  A    between atoms: _231  and  _233
REMARK   95  A    between atoms: _233  and  _234
REMARK   96  A    between atoms: _236  and  _238
REMARK   97  A    between atoms: _238  and  _239
REMARK   98  A    between atoms: _238  and  _241
REMARK   99  A    between atoms: _241  and  _242
REMARK  100  A    between atoms: _242  and  _243
REMARK  101  A    between atoms: _243  and  _244
REMARK  102  A    between atoms: _253  and  _255
REMARK  103  A    between atoms: _255  and  _256
REMARK  104  A    between atoms: _255  and  _258
REMARK  105  A    between atoms: _258  and  _259
REMARK  106  A    between atoms: _264  and  _266
REMARK  107  A    between atoms: _266  and  _267
REMARK  108  A    between atoms: _266  and  _269
REMARK  109  A    between atoms: _269  and  _270
REMARK  110  A    between atoms: _270  and  _271
REMARK  111  A    between atoms: _271  and  _272
REMARK  112  A    between atoms: _281  and  _283
REMARK  113  A    between atoms: _283  and  _284
REMARK  114  A    between atoms: _283  and  _286
REMARK  115  A    between atoms: _286  and  _287
REMARK  116  A    between atoms: _290  and  _292
REMARK  117  A    between atoms: _292  and  _293
REMARK  118  A    between atoms: _292  and  _295
REMARK  119  A    between atoms: _295  and  _296
REMARK  120  A    between atoms: _299  and  _301
REMARK  121  A    between atoms: _301  and  _302
REMARK  122  A    between atoms: _301  and  _304
REMARK  123  A    between atoms: _304  and  _305
REMARK  124  A    between atoms: _308  and  _310
REMARK  125  A    between atoms: _310  and  _311
REMARK  126  A    between atoms: _310  and  _313
REMARK  127  A    between atoms: _313  and  _314
REMARK  128  A    between atoms: _317  and  _319
REMARK  129  A    between atoms: _319  and  _320
REMARK  130  A    between atoms: _319  and  _322
REMARK  131  A    between atoms: _322  and  _323
REMARK  132  A    between atoms: _326  and  _328
REMARK  133  A    between atoms: _328  and  _329
REMARK  134  A    between atoms: _331  and  _333
REMARK  135  A    between atoms: _333  and  _334
REMARK  136  A    between atoms: _337  and  _339
REMARK  137  A    between atoms: _339  and  _340
REMARK  138  A    between atoms: _339  and  _342
REMARK  139  A    between atoms: _342  and  _343
REMARK  140  A    between atoms: _346  and  _348
REMARK  141  A    between atoms: _348  and  _349
REMARK  142  A    between atoms: _348  and  _351
REMARK  143  A    between atoms: _351  and  _352
REMARK  144  A    between atoms: _357  and  _359
REMARK  145  A    between atoms: _359  and  _360
REMARK  146  A    between atoms: _359  and  _362
REMARK  147  A    between atoms: _362  and  _363
REMARK  148  A    between atoms: _366  and  _368
REMARK  149  A    between atoms: _368  and  _369
REMARK  150  A    between atoms: _368  and  _371
REMARK  151  A    between atoms: _374  and  _376
REMARK  152  A    between atoms: _376  and  _377
REMARK  153  A    between atoms: _376  and  _379
REMARK  154  A    between atoms: _379  and  _380
REMARK  155  A    between atoms: _380  and  _381
REMARK  156  A    between atoms: _381  and  _382
REMARK  157  A    between atoms: _382  and  _383
REMARK  158  A    between atoms: _387  and  _389
REMARK  159  A    between atoms: _389  and  _390
REMARK  160  A    between atoms: _389  and  _392
REMARK  161  A    between atoms: _392  and  _393
REMARK  162  A    between atoms: _393  and  _394
REMARK  163  A    between atoms: _396  and  _398
REMARK  164  A    between atoms: _398  and  _399
REMARK  165  A    between atoms: _398  and  _401
REMARK  166  A    between atoms: _401  and  _402
REMARK  167  A    between atoms: _405  and  _407
REMARK  168  A    between atoms: _407  and  _408
REMARK  169  A    between atoms: _410  and  _412
REMARK  170  A    between atoms: _412  and  _413
REMARK  171  A    between atoms: _415  and  _417
REMARK  172  A    between atoms: _417  and  _418
REMARK  173  A    between atoms: _417  and  _420
REMARK  174  A    between atoms: _420  and  _421
REMARK  175  A    between atoms: _424  and  _426
REMARK  176  A    between atoms: _426  and  _427
REMARK  177  A    between atoms: _429  and  _431
REMARK  178  A    between atoms: _431  and  _432
REMARK  179  A    between atoms: _434  and  _436
REMARK  180  A    between atoms: _436  and  _437
REMARK  181  A    between atoms: _436  and  _439
REMARK  182  A    between atoms: _439  and  _440
REMARK  183  A    between atoms: _446  and  _448
REMARK  184  A    between atoms: _448  and  _449
REMARK  185  A    between atoms: _448  and  _451
REMARK  186  A    between atoms: _451  and  _452
REMARK  187  A    between atoms: _455  and  _457
REMARK  188  A    between atoms: _457  and  _458
REMARK  189  A    between atoms: _457  and  _460
REMARK  190  A    between atoms: _463  and  _465
REMARK  191  A    between atoms: _465  and  _466
REMARK  192  A    between atoms: _465  and  _468
REMARK  193  A    between atoms: _468  and  _469
REMARK  194  A    between atoms: _472  and  _474
REMARK  195  A    between atoms: _474  and  _475
REMARK  196  A    between atoms: _474  and  _477
REMARK  197  A    between atoms: _477  and  _478
REMARK  198  A    between atoms: _482  and  _483
REMARK  199  A    between atoms: _488  and  _490
REMARK  200  A    between atoms: _490  and  _491
REMARK  201  A    between atoms: _490  and  _493
REMARK  202  A    between atoms: _496  and  _498
REMARK  203  A    between atoms: _498  and  _499
REMARK  204  A    between atoms: _498  and  _501
REMARK  205  A    between atoms: _501  and  _502
REMARK  206  A    between atoms: _507  and  _509
REMARK  207  A    between atoms: _509  and  _510
REMARK  208  A    between atoms: _509  and  _512
REMARK  209  A    between atoms: _512  and  _513
REMARK  210  A    between atoms: _516  and  _518
REMARK  211  A    between atoms: _518  and  _519
REMARK  212  A    between atoms: _518  and  _521
REMARK  213  A    between atoms: _521  and  _522
REMARK  214  A    between atoms: _525  and  _527
REMARK  215  A    between atoms: _527  and  _528
REMARK  216  A    between atoms: _530  and  _532
REMARK  217  A    between atoms: _532  and  _533
REMARK  218  A    between atoms: _532  and  _535
REMARK  219  A    between atoms: _535  and  _536
REMARK  220  A    between atoms: _536  and  _537
REMARK  221  A    between atoms: _537  and  _538
REMARK  222  A    between atoms: _547  and  _549
REMARK  223  A    between atoms: _549  and  _550
REMARK  224  A    between atoms: _549  and  _552
REMARK  225  A    between atoms: _552  and  _553
REMARK                            x       y       z     vdW  Elec       q    Type
REMARK                         _______ _______ _______ _____ _____    ______ ____
ROOT
ATOM      1  O   HOH     1     -16.039  60.395   9.917  0.00  0.00    +0.000 OA
ENDROOT
TORSDOF 0
REMARK  Name = ../refined-set-2016/2q63/2q63_pocket.pdb
REMARK  225 active torsions:
REMARK  status: ('A' for Active; 'I' for Inactive)
REMARK    1  A    between atoms: _1  and  _3
REMARK    2  A    between atoms: _3  and  _4
REMARK    3  A    between atoms: _3  and  _6
REMARK    4  A    between atoms: _6  and  _7
REMARK    5  A    between atoms: _7  and  _8
REMARK    6  A    between atoms: _8  and  _9
REMARK    7  A    between atoms: _18  and  _20
REMARK    8  A    between atoms: _20  and  _21
REMARK    9  A    between atoms: _20  and  _23
REMARK   10  A    between atoms: _23  and  _24
REMARK   11  A    between atoms: _27  and  _29
REMARK   12  A    between atoms: _29  and  _30
REMARK   13  A    between atoms: _29  and  _32
REMARK   14  A    between atoms: _32  and  _33
REMARK   15  A    between atoms: _36  and  _38
REMARK   16  A    between atoms: _38  and  _39
REMARK   17  A    between atoms: _38  and  _41
REMARK   18  A    between atoms: _41  and  _42
REMARK   19  A    between atoms: _45  and  _47
REMARK   20  A    between atoms: _47  and  _48
REMARK   21  A    between atoms: _47  and  _50
REMARK   22  A    between atoms: _50  and  _51
REMARK   23  A    between atoms: _54  and  _56
REMARK   24  A    between atoms: _56  and  _57
REMARK   25  A    between atoms: _59  and  _61
REMARK   26  A    between atoms: _61  and  _62
REMARK   27  A    between atoms: _65  and  _67
REMARK   28  A    between atoms: _67  and  _68
REMARK   29  A    between atoms: _67  and  _70
REMARK   30  A    between atoms: _70  and  _71
REMARK   31  A    between atoms: _74  and  _76
REMARK   32  A    between atoms: _76  and  _77
REMARK   33  A    between atoms: _76  and  _79
REMARK   34  A    between atoms: _79  and  _80
REMARK   35  A    between atoms: _85  and  _87
REMARK   36  A    between atoms: _87  and  _88
REMARK   37  A    between atoms: _87  and  _90
REMARK   38  A    between atoms: _90  and  _91
REMARK   39  A    between atoms: _94  and  _96
REMARK   40  A    between atoms: _96  and  _97
REMARK   41  A    between atoms: _96  and  _99
REMARK   42  A    between atoms: _102  and  _104
REMARK   43  A    between atoms: _104  and  _105
REMARK   44  A    between atoms: _104  and  _107
REMARK   45  A    between atoms: _107  and  _108
REMARK   46  A    between atoms: _108  and  _109
REMARK   47  A    between atoms: _109  and  _110
REMARK   48  A    between atoms: _110  and  _111
REMARK   49  A    between atoms: _115  and  _117
REMARK   50  A    between atoms: _117  and  _118
REMARK   51  A    between atoms: _117  and  _120
REMARK   52  A    between atoms: _120  and  _121
REMARK   53  A    between atoms: _124  and  _126
REMARK   54  A    between atoms: _126  and  _127
REMARK   55  A    between atoms: _129  and  _131
REMARK   56  A    between atoms: _131  and  _132
REMARK   57  A    between atoms: _134  and  _136
REMARK   58  A    between atoms: _136  and  _137
REMARK   59  A    between atoms: _136  and  _139
REMARK   60  A    between atoms: _139  and  _140
REMARK   61  A    between atoms: _143  and  _145
REMARK   62  A    between atoms: _145  and  _146
REMARK   63  A    between atoms: _148  and  _150
REMARK   64  A    between atoms: _150  and  _151
REMARK   65  A    between atoms: _153  and  _155
REMARK   66  A    between atoms: _155  and  _156
REMARK   67  A    between atoms: _155  and  _158
REMARK   68  A    between atoms: _158  and  _159
REMARK   69  A    between atoms: _162  and  _164
REMARK   70  A    between atoms: _164  and  _165
REMARK   71  A    between atoms: _164  and  _167
REMARK   72  A    between atoms: _167  and  _168
REMARK   73  A    between atoms: _172  and  _173
REMARK   74  A    between atoms: _178  and  _180
REMARK   75  A    between atoms: _180  and  _181
REMARK   76  A    between atoms: _180  and  _183
REMARK   77  A    between atoms: _183  and  _184
REMARK   78  A    between atoms: _188  and  _189
REMARK   79  A    between atoms: _194  and  _196
REMARK   80  A    between atoms: _196  and  _197
REMARK   81  A    between atoms: _196  and  _199
REMARK   82  A    between atoms: _202  and  _204
REMARK   83  A    between atoms: _204  and  _205
REMARK   84  A    between atoms: _204  and  _207
REMARK   85  A    between atoms: _207  and  _208
REMARK   86  A    between atoms: _213  and  _215
REMARK   87  A    between atoms: _215  and  _216
REMARK   88  A    between atoms: _215  and  _218
REMARK   89  A    between atoms: _218  and  _219
REMARK   90  A    between atoms: _222  and  _224
REMARK   91  A    between atoms: _224  and  _225
REMARK   92  A    between atoms: _224  and  _227
REMARK   93  A    between atoms: _227  and  _228
REMARK   94  A    between atoms: _231  and  _233
REMARK   95  A    between atoms: _233  and  _234
REMARK   96  A    between atoms: _236  and  _238
REMARK   97  A    between atoms: _238  and  _239
REMARK   98  A    between atoms: _238  and  _241
REMARK   99  A    between atoms: _241  and  _242
REMARK  100  A    between atoms: _242  and  _243
REMARK  101  A    between atoms: _243  and  _244
REMARK  102  A    between atoms: _253  and  _255
REMARK  103  A    between atoms: _255  and  _256
REMARK  104  A    between atoms: _255  and  _258
REMARK  105  A    between atoms: _258  and  _259
REMARK  106  A    between atoms: _264  and  _266
REMARK  107  A    between atoms: _266  and  _267
REMARK  108  A    between atoms: _266  and  _269
REMARK  109  A    between atoms: _269  and  _270
REMARK  110  A    between atoms: _270  and  _271
REMARK  111  A    between atoms: _271  and  _272
REMARK  112  A    between atoms: _281  and  _283
REMARK  113  A    between atoms: _283  and  _284
REMARK  114  A    between atoms: _283  and  _286
REMARK  115  A    between atoms: _286  and  _287
REMARK  116  A    between atoms: _290  and  _292
REMARK  117  A    between atoms: _292  and  _293
REMARK  118  A    between atoms: _292  and  _295
REMARK  119  A    between atoms: _295  and  _296
REMARK  120  A    between atoms: _299  and  _301
REMARK  121  A    between atoms: _301  and  _302
REMARK  122  A    between atoms: _301  and  _304
REMARK  123  A    between atoms: _304  and  _305
REMARK  124  A    between atoms: _308  and  _310
REMARK  125  A    between atoms: _310  and  _311
REMARK  126  A    between atoms: _310  and  _313
REMARK  127  A    between atoms: _313  and  _314
REMARK  128  A    between atoms: _317  and  _319
REMARK  129  A    between atoms: _319  and  _320
REMARK  130  A    between atoms: _319  and  _322
REMARK  131  A    between atoms: _322  and  _323
REMARK  132  A    between atoms: _326  and  _328
REMARK  133  A    between atoms: _328  and  _329
REMARK  134  A    between atoms: _331  and  _333
REMARK  135  A    between atoms: _333  and  _334
REMARK  136  A    between atoms: _337  and  _339
REMARK  137  A    between atoms: _339  and  _340
REMARK  138  A    between atoms: _339  and  _342
REMARK  139  A    between atoms: _342  and  _343
REMARK  140  A    between atoms: _346  and  _348
REMARK  141  A    between atoms: _348  and  _349
REMARK  142  A    between atoms: _348  and  _351
REMARK  143  A    between atoms: _351  and  _352
REMARK  144  A    between atoms: _357  and  _359
REMARK  145  A    between atoms: _359  and  _360
REMARK  146  A    between atoms: _359  and  _362
REMARK  147  A    between atoms: _362  and  _363
REMARK  148  A    between atoms: _366  and  _368
REMARK  149  A    between atoms: _368  and  _369
REMARK  150  A    between atoms: _368  and  _371
REMARK  151  A    between atoms: _374  and  _376
REMARK  152  A    between atoms: _376  and  _377
REMARK  153  A    between atoms: _376  and  _379
REMARK  154  A    between atoms: _379  and  _380
REMARK  155  A    between atoms: _380  and  _381
REMARK  156  A    between atoms: _381  and  _382
REMARK  157  A    between atoms: _382  and  _383
REMARK  158  A    between atoms: _387  and  _389
REMARK  159  A    between atoms: _389  and  _390
REMARK  160  A    between atoms: _389  and  _392
REMARK  161  A    between atoms: _392  and  _393
REMARK  162  A    between atoms: _393  and  _394
REMARK  163  A    between atoms: _396  and  _398
REMARK  164  A    between atoms: _398  and  _399
REMARK  165  A    between atoms: _398  and  _401
REMARK  166  A    between atoms: _401  and  _402
REMARK  167  A    between atoms: _405  and  _407
REMARK  168  A    between atoms: _407  and  _408
REMARK  169  A    between atoms: _410  and  _412
REMARK  170  A    between atoms: _412  and  _413
REMARK  171  A    between atoms: _415  and  _417
REMARK  172  A    between atoms: _417  and  _418
REMARK  173  A    between atoms: _417  and  _420
REMARK  174  A    between atoms: _420  and  _421
REMARK  175  A    between atoms: _424  and  _426
REMARK  176  A    between atoms: _426  and  _427
REMARK  177  A    between atoms: _429  and  _431
REMARK  178  A    between atoms: _431  and  _432
REMARK  179  A    between atoms: _434  and  _436
REMARK  180  A    between atoms: _436  and  _437
REMARK  181  A    between atoms: _436  and  _439
REMARK  182  A    between atoms: _439  and  _440
REMARK  183  A    between atoms: _446  and  _448
REMARK  184  A    between atoms: _448  and  _449
REMARK  185  A    between atoms: _448  and  _451
REMARK  186  A    between atoms: _451  and  _452
REMARK  187  A    between atoms: _455  and  _457
REMARK  188  A    between atoms: _457  and  _458
REMARK  189  A    between atoms: _457  and  _460
REMARK  190  A    between atoms: _463  and  _465
REMARK  191  A    between atoms: _465  and  _466
REMARK  192  A    between atoms: _465  and  _468
REMARK  193  A    between atoms: _468  and  _469
REMARK  194  A    between atoms: _472  and  _474
REMARK  195  A    between atoms: _474  and  _475
REMARK  196  A    between atoms: _474  and  _477
REMARK  197  A    between atoms: _477  and  _478
REMARK  198  A    between atoms: _482  and  _483
REMARK  199  A    between atoms: _488  and  _490
REMARK  200  A    between atoms: _490  and  _491
REMARK  201  A    between atoms: _490  and  _493
REMARK  202  A    between atoms: _496  and  _498
REMARK  203  A    between atoms: _498  and  _499
REMARK  204  A    between atoms: _498  and  _501
REMARK  205  A    between atoms: _501  and  _502
REMARK  206  A    between atoms: _507  and  _509
REMARK  207  A    between atoms: _509  and  _510
REMARK  208  A    between atoms: _509  and  _512
REMARK  209  A    between atoms: _512  and  _513
REMARK  210  A    between atoms: _516  and  _518
REMARK  211  A    between atoms: _518  and  _519
REMARK  212  A    between atoms: _518  and  _521
REMARK  213  A    between atoms: _521  and  _522
REMARK  214  A    between atoms: _525  and  _527
REMARK  215  A    between atoms: _527  and  _528
REMARK  216  A    between atoms: _530  and  _532
REMARK  217  A    between atoms: _532  and  _533
REMARK  218  A    between atoms: _532  and  _535
REMARK  219  A    between atoms: _535  and  _536
REMARK  220  A    between atoms: _536  and  _537
REMARK  221  A    between atoms: _537  and  _538
REMARK  222  A    between atoms: _547  and  _549
REMARK  223  A    between atoms: _549  and  _550
REMARK  224  A    between atoms: _549  and  _552
REMARK  225  A    between atoms: _552  and  _553
REMARK                            x       y       z     vdW  Elec       q    Type
REMARK                         _______ _______ _______ _____ _____    ______ ____
ROOT
ATOM      1  O   HOH     1     -11.680  57.332   9.874  0.00  0.00    +0.000 OA
ENDROOT
TORSDOF 0
REMARK  Name = ../refined-set-2016/2q63/2q63_pocket.pdb
REMARK  225 active torsions:
REMARK  status: ('A' for Active; 'I' for Inactive)
REMARK    1  A    between atoms: _1  and  _3
REMARK    2  A    between atoms: _3  and  _4
REMARK    3  A    between atoms: _3  and  _6
REMARK    4  A    between atoms: _6  and  _7
REMARK    5  A    between atoms: _7  and  _8
REMARK    6  A    between atoms: _8  and  _9
REMARK    7  A    between atoms: _18  and  _20
REMARK    8  A    between atoms: _20  and  _21
REMARK    9  A    between atoms: _20  and  _23
REMARK   10  A    between atoms: _23  and  _24
REMARK   11  A    between atoms: _27  and  _29
REMARK   12  A    between atoms: _29  and  _30
REMARK   13  A    between atoms: _29  and  _32
REMARK   14  A    between atoms: _32  and  _33
REMARK   15  A    between atoms: _36  and  _38
REMARK   16  A    between atoms: _38  and  _39
REMARK   17  A    between atoms: _38  and  _41
REMARK   18  A    between atoms: _41  and  _42
REMARK   19  A    between atoms: _45  and  _47
REMARK   20  A    between atoms: _47  and  _48
REMARK   21  A    between atoms: _47  and  _50
REMARK   22  A    between atoms: _50  and  _51
REMARK   23  A    between atoms: _54  and  _56
REMARK   24  A    between atoms: _56  and  _57
REMARK   25  A    between atoms: _59  and  _61
REMARK   26  A    between atoms: _61  and  _62
REMARK   27  A    between atoms: _65  and  _67
REMARK   28  A    between atoms: _67  and  _68
REMARK   29  A    between atoms: _67  and  _70
REMARK   30  A    between atoms: _70  and  _71
REMARK   31  A    between atoms: _74  and  _76
REMARK   32  A    between atoms: _76  and  _77
REMARK   33  A    between atoms: _76  and  _79
REMARK   34  A    between atoms: _79  and  _80
REMARK   35  A    between atoms: _85  and  _87
REMARK   36  A    between atoms: _87  and  _88
REMARK   37  A    between atoms: _87  and  _90
REMARK   38  A    between atoms: _90  and  _91
REMARK   39  A    between atoms: _94  and  _96
REMARK   40  A    between atoms: _96  and  _97
REMARK   41  A    between atoms: _96  and  _99
REMARK   42  A    between atoms: _102  and  _104
REMARK   43  A    between atoms: _104  and  _105
REMARK   44  A    between atoms: _104  and  _107
REMARK   45  A    between atoms: _107  and  _108
REMARK   46  A    between atoms: _108  and  _109
REMARK   47  A    between atoms: _109  and  _110
REMARK   48  A    between atoms: _110  and  _111
REMARK   49  A    between atoms: _115  and  _117
REMARK   50  A    between atoms: _117  and  _118
REMARK   51  A    between atoms: _117  and  _120
REMARK   52  A    between atoms: _120  and  _121
REMARK   53  A    between atoms: _124  and  _126
REMARK   54  A    between atoms: _126  and  _127
REMARK   55  A    between atoms: _129  and  _131
REMARK   56  A    between atoms: _131  and  _132
REMARK   57  A    between atoms: _134  and  _136
REMARK   58  A    between atoms: _136  and  _137
REMARK   59  A    between atoms: _136  and  _139
REMARK   60  A    between atoms: _139  and  _140
REMARK   61  A    between atoms: _143  and  _145
REMARK   62  A    between atoms: _145  and  _146
REMARK   63  A    between atoms: _148  and  _150
REMARK   64  A    between atoms: _150  and  _151
REMARK   65  A    between atoms: _153  and  _155
REMARK   66  A    between atoms: _155  and  _156
REMARK   67  A    between atoms: _155  and  _158
REMARK   68  A    between atoms: _158  and  _159
REMARK   69  A    between atoms: _162  and  _164
REMARK   70  A    between atoms: _164  and  _165
REMARK   71  A    between atoms: _164  and  _167
REMARK   72  A    between atoms: _167  and  _168
REMARK   73  A    between atoms: _172  and  _173
REMARK   74  A    between atoms: _178  and  _180
REMARK   75  A    between atoms: _180  and  _181
REMARK   76  A    between atoms: _180  and  _183
REMARK   77  A    between atoms: _183  and  _184
REMARK   78  A    between atoms: _188  and  _189
REMARK   79  A    between atoms: _194  and  _196
REMARK   80  A    between atoms: _196  and  _197
REMARK   81  A    between atoms: _196  and  _199
REMARK   82  A    between atoms: _202  and  _204
REMARK   83  A    between atoms: _204  and  _205
REMARK   84  A    between atoms: _204  and  _207
REMARK   85  A    between atoms: _207  and  _208
REMARK   86  A    between atoms: _213  and  _215
REMARK   87  A    between atoms: _215  and  _216
REMARK   88  A    between atoms: _215  and  _218
REMARK   89  A    between atoms: _218  and  _219
REMARK   90  A    between atoms: _222  and  _224
REMARK   91  A    between atoms: _224  and  _225
REMARK   92  A    between atoms: _224  and  _227
REMARK   93  A    between atoms: _227  and  _228
REMARK   94  A    between atoms: _231  and  _233
REMARK   95  A    between atoms: _233  and  _234
REMARK   96  A    between atoms: _236  and  _238
REMARK   97  A    between atoms: _238  and  _239
REMARK   98  A    between atoms: _238  and  _241
REMARK   99  A    between atoms: _241  and  _242
REMARK  100  A    between atoms: _242  and  _243
REMARK  101  A    between atoms: _243  and  _244
REMARK  102  A    between atoms: _253  and  _255
REMARK  103  A    between atoms: _255  and  _256
REMARK  104  A    between atoms: _255  and  _258
REMARK  105  A    between atoms: _258  and  _259
REMARK  106  A    between atoms: _264  and  _266
REMARK  107  A    between atoms: _266  and  _267
REMARK  108  A    between atoms: _266  and  _269
REMARK  109  A    between atoms: _269  and  _270
REMARK  110  A    between atoms: _270  and  _271
REMARK  111  A    between atoms: _271  and  _272
REMARK  112  A    between atoms: _281  and  _283
REMARK  113  A    between atoms: _283  and  _284
REMARK  114  A    between atoms: _283  and  _286
REMARK  115  A    between atoms: _286  and  _287
REMARK  116  A    between atoms: _290  and  _292
REMARK  117  A    between atoms: _292  and  _293
REMARK  118  A    between atoms: _292  and  _295
REMARK  119  A    between atoms: _295  and  _296
REMARK  120  A    between atoms: _299  and  _301
REMARK  121  A    between atoms: _301  and  _302
REMARK  122  A    between atoms: _301  and  _304
REMARK  123  A    between atoms: _304  and  _305
REMARK  124  A    between atoms: _308  and  _310
REMARK  125  A    between atoms: _310  and  _311
REMARK  126  A    between atoms: _310  and  _313
REMARK  127  A    between atoms: _313  and  _314
REMARK  128  A    between atoms: _317  and  _319
REMARK  129  A    between atoms: _319  and  _320
REMARK  130  A    between atoms: _319  and  _322
REMARK  131  A    between atoms: _322  and  _323
REMARK  132  A    between atoms: _326  and  _328
REMARK  133  A    between atoms: _328  and  _329
REMARK  134  A    between atoms: _331  and  _333
REMARK  135  A    between atoms: _333  and  _334
REMARK  136  A    between atoms: _337  and  _339
REMARK  137  A    between atoms: _339  and  _340
REMARK  138  A    between atoms: _339  and  _342
REMARK  139  A    between atoms: _342  and  _343
REMARK  140  A    between atoms: _346  and  _348
REMARK  141  A    between atoms: _348  and  _349
REMARK  142  A    between atoms: _348  and  _351
REMARK  143  A    between atoms: _351  and  _352
REMARK  144  A    between atoms: _357  and  _359
REMARK  145  A    between atoms: _359  and  _360
REMARK  146  A    between atoms: _359  and  _362
REMARK  147  A    between atoms: _362  and  _363
REMARK  148  A    between atoms: _366  and  _368
REMARK  149  A    between atoms: _368  and  _369
REMARK  150  A    between atoms: _368  and  _371
REMARK  151  A    between atoms: _374  and  _376
REMARK  152  A    between atoms: _376  and  _377
REMARK  153  A    between atoms: _376  and  _379
REMARK  154  A    between atoms: _379  and  _380
REMARK  155  A    between atoms: _380  and  _381
REMARK  156  A    between atoms: _381  and  _382
REMARK  157  A    between atoms: _382  and  _383
REMARK  158  A    between atoms: _387  and  _389
REMARK  159  A    between atoms: _389  and  _390
REMARK  160  A    between atoms: _389  and  _392
REMARK  161  A    between atoms: _392  and  _393
REMARK  162  A    between atoms: _393  and  _394
REMARK  163  A    between atoms: _396  and  _398
REMARK  164  A    between atoms: _398  and  _399
REMARK  165  A    between atoms: _398  and  _401
REMARK  166  A    between atoms: _401  and  _402
REMARK  167  A    between atoms: _405  and  _407
REMARK  168  A    between atoms: _407  and  _408
REMARK  169  A    between atoms: _410  and  _412
REMARK  170  A    between atoms: _412  and  _413
REMARK  171  A    between atoms: _415  and  _417
REMARK  172  A    between atoms: _417  and  _418
REMARK  173  A    between atoms: _417  and  _420
REMARK  174  A    between atoms: _420  and  _421
REMARK  175  A    between atoms: _424  and  _426
REMARK  176  A    between atoms: _426  and  _427
REMARK  177  A    between atoms: _429  and  _431
REMARK  178  A    between atoms: _431  and  _432
REMARK  179  A    between atoms: _434  and  _436
REMARK  180  A    between atoms: _436  and  _437
REMARK  181  A    between atoms: _436  and  _439
REMARK  182  A    between atoms: _439  and  _440
REMARK  183  A    between atoms: _446  and  _448
REMARK  184  A    between atoms: _448  and  _449
REMARK  185  A    between atoms: _448  and  _451
REMARK  186  A    between atoms: _451  and  _452
REMARK  187  A    between atoms: _455  and  _457
REMARK  188  A    between atoms: _457  and  _458
REMARK  189  A    between atoms: _457  and  _460
REMARK  190  A    between atoms: _463  and  _465
REMARK  191  A    between atoms: _465  and  _466
REMARK  192  A    between atoms: _465  and  _468
REMARK  193  A    between atoms: _468  and  _469
REMARK  194  A    between atoms: _472  and  _474
REMARK  195  A    between atoms: _474  and  _475
REMARK  196  A    between atoms: _474  and  _477
REMARK  197  A    between atoms: _477  and  _478
REMARK  198  A    between atoms: _482  and  _483
REMARK  199  A    between atoms: _488  and  _490
REMARK  200  A    between atoms: _490  and  _491
REMARK  201  A    between atoms: _490  and  _493
REMARK  202  A    between atoms: _496  and  _498
REMARK  203  A    between atoms: _498  and  _499
REMARK  204  A    between atoms: _498  and  _501
REMARK  205  A    between atoms: _501  and  _502
REMARK  206  A    between atoms: _507  and  _509
REMARK  207  A    between atoms: _509  and  _510
REMARK  208  A    between atoms: _509  and  _512
REMARK  209  A    between atoms: _512  and  _513
REMARK  210  A    between atoms: _516  and  _518
REMARK  211  A    between atoms: _518  and  _519
REMARK  212  A    between atoms: _518  and  _521
REMARK  213  A    between atoms: _521  and  _522
REMARK  214  A    between atoms: _525  and  _527
REMARK  215  A    between atoms: _527  and  _528
REMARK  216  A    between atoms: _530  and  _532
REMARK  217  A    between atoms: _532  and  _533
REMARK  218  A    between atoms: _532  and  _535
REMARK  219  A    between atoms: _535  and  _536
REMARK  220  A    between atoms: _536  and  _537
REMARK  221  A    between atoms: _537  and  _538
REMARK  222  A    between atoms: _547  and  _549
REMARK  223  A    between atoms: _549  and  _550
REMARK  224  A    between atoms: _549  and  _552
REMARK  225  A    between atoms: _552  and  _553
REMARK                            x       y       z     vdW  Elec       q    Type
REMARK                         _______ _______ _______ _____ _____    ______ ____
ROOT
ATOM      1  O   HOH     1     -12.481  60.226  13.773  0.00  0.00    +0.000 OA
ENDROOT
TORSDOF 0
