REMARK  Name = ../refined-set-2016/3d52/3d52_pocket.pdb
REMARK  164 active torsions:
REMARK  status: ('A' for Active; 'I' for Inactive)
REMARK    1  A    between atoms: _1  and  _3
REMARK    2  A    between atoms: _14  and  _17
REMARK    3  A    between atoms: _17  and  _18
REMARK    4  A    between atoms: _25  and  _26
REMARK    5  A    between atoms: _33  and  _34
REMARK    6  A    between atoms: _39  and  _41
REMARK    7  A    between atoms: _41  and  _42
REMARK    8  A    between atoms: _44  and  _46
REMARK    9  A    between atoms: _46  and  _47
REMARK   10  A    between atoms: _46  and  _49
REMARK   11  A    between atoms: _49  and  _50
REMARK   12  A    between atoms: _60  and  _62
REMARK   13  A    between atoms: _62  and  _63
REMARK   14  A    between atoms: _62  and  _65
REMARK   15  A    between atoms: _65  and  _66
REMARK   16  A    between atoms: _69  and  _71
REMARK   17  A    between atoms: _71  and  _72
REMARK   18  A    between atoms: _71  and  _74
REMARK   19  A    between atoms: _74  and  _75
REMARK   20  A    between atoms: _75  and  _76
REMARK   21  A    between atoms: _81  and  _83
REMARK   22  A    between atoms: _83  and  _84
REMARK   23  A    between atoms: _83  and  _86
REMARK   24  A    between atoms: _86  and  _87
REMARK   25  A    between atoms: _92  and  _93
REMARK   26  A    between atoms: _95  and  _97
REMARK   27  A    between atoms: _97  and  _98
REMARK   28  A    between atoms: _97  and  _100
REMARK   29  A    between atoms: _100  and  _101
REMARK   30  A    between atoms: _104  and  _106
REMARK   31  A    between atoms: _106  and  _107
REMARK   32  A    between atoms: _106  and  _109
REMARK   33  A    between atoms: _109  and  _110
REMARK   34  A    between atoms: _110  and  _111
REMARK   35  A    between atoms: _113  and  _115
REMARK   36  A    between atoms: _115  and  _116
REMARK   37  A    between atoms: _115  and  _118
REMARK   38  A    between atoms: _118  and  _119
REMARK   39  A    between atoms: _122  and  _124
REMARK   40  A    between atoms: _124  and  _125
REMARK   41  A    between atoms: _124  and  _127
REMARK   42  A    between atoms: _127  and  _128
REMARK   43  A    between atoms: _128  and  _130
REMARK   44  A    between atoms: _130  and  ZN_440
REMARK   45  A    between atoms: _132  and  _133
REMARK   46  A    between atoms: _138  and  _140
REMARK   47  A    between atoms: _140  and  _141
REMARK   48  A    between atoms: _140  and  _143
REMARK   49  A    between atoms: _143  and  _144
REMARK   50  A    between atoms: _150  and  _152
REMARK   51  A    between atoms: _152  and  _153
REMARK   52  A    between atoms: _152  and  _155
REMARK   53  A    between atoms: _155  and  _156
REMARK   54  A    between atoms: _156  and  _157
REMARK   55  A    between atoms: _157  and  _158
REMARK   56  A    between atoms: _167  and  _169
REMARK   57  A    between atoms: _169  and  _170
REMARK   58  A    between atoms: _169  and  _172
REMARK   59  A    between atoms: _172  and  _173
REMARK   60  A    between atoms: _178  and  _179
REMARK   61  A    between atoms: _181  and  _183
REMARK   62  A    between atoms: _183  and  _184
REMARK   63  A    between atoms: _183  and  _186
REMARK   64  A    between atoms: _186  and  _187
REMARK   65  A    between atoms: _189  and  _191
REMARK   66  A    between atoms: _191  and  _192
REMARK   67  A    between atoms: _191  and  _194
REMARK   68  A    between atoms: _194  and  _195
REMARK   69  A    between atoms: _200  and  _201
REMARK   70  A    between atoms: _203  and  _205
REMARK   71  A    between atoms: _205  and  _206
REMARK   72  A    between atoms: _205  and  _208
REMARK   73  A    between atoms: _208  and  _209
REMARK   74  A    between atoms: _209  and  _210
REMARK   75  A    between atoms: _210  and  _211
REMARK   76  A    between atoms: _211  and  _212
REMARK   77  A    between atoms: _216  and  _218
REMARK   78  A    between atoms: _218  and  _219
REMARK   79  A    between atoms: _218  and  _221
REMARK   80  A    between atoms: _221  and  _222
REMARK   81  A    between atoms: _225  and  _227
REMARK   82  A    between atoms: _227  and  _228
REMARK   83  A    between atoms: _227  and  _230
REMARK   84  A    between atoms: _230  and  _231
REMARK   85  A    between atoms: _234  and  _236
REMARK   86  A    between atoms: _236  and  _237
REMARK   87  A    between atoms: _236  and  _239
REMARK   88  A    between atoms: _239  and  _240
REMARK   89  A    between atoms: _243  and  _245
REMARK   90  A    between atoms: _245  and  _246
REMARK   91  A    between atoms: _245  and  _248
REMARK   92  A    between atoms: _248  and  _249
REMARK   93  A    between atoms: _255  and  _257
REMARK   94  A    between atoms: _257  and  _258
REMARK   95  A    between atoms: _257  and  _260
REMARK   96  A    between atoms: _260  and  _261
REMARK   97  A    between atoms: _261  and  _262
REMARK   98  A    between atoms: _262  and  _263
REMARK   99  A    between atoms: _272  and  _274
REMARK  100  A    between atoms: _274  and  _275
REMARK  101  A    between atoms: _274  and  _277
REMARK  102  A    between atoms: _277  and  _278
REMARK  103  A    between atoms: _283  and  _284
REMARK  104  A    between atoms: _286  and  _288
REMARK  105  A    between atoms: _288  and  _289
REMARK  106  A    between atoms: _288  and  _291
REMARK  107  A    between atoms: _291  and  _292
REMARK  108  A    between atoms: _295  and  _297
REMARK  109  A    between atoms: _297  and  _298
REMARK  110  A    between atoms: _297  and  _300
REMARK  111  A    between atoms: _300  and  _301
REMARK  112  A    between atoms: _311  and  _313
REMARK  113  A    between atoms: _313  and  _314
REMARK  114  A    between atoms: _313  and  _316
REMARK  115  A    between atoms: _316  and  _317
REMARK  116  A    between atoms: _322  and  _324
REMARK  117  A    between atoms: _324  and  _325
REMARK  118  A    between atoms: _324  and  _327
REMARK  119  A    between atoms: _327  and  _328
REMARK  120  A    between atoms: _332  and  ZN_440
REMARK  121  A    between atoms: _333  and  _335
REMARK  122  A    between atoms: _335  and  _336
REMARK  123  A    between atoms: _335  and  _338
REMARK  124  A    between atoms: _338  and  _339
REMARK  125  A    between atoms: _342  and  _344
REMARK  126  A    between atoms: _344  and  _345
REMARK  127  A    between atoms: _347  and  _349
REMARK  128  A    between atoms: _349  and  _350
REMARK  129  A    between atoms: _349  and  _352
REMARK  130  A    between atoms: _352  and  _353
REMARK  131  A    between atoms: _356  and  _358
REMARK  132  A    between atoms: _358  and  _359
REMARK  133  A    between atoms: _358  and  _361
REMARK  134  A    between atoms: _361  and  _362
REMARK  135  A    between atoms: _365  and  _367
REMARK  136  A    between atoms: _367  and  _368
REMARK  137  A    between atoms: _371  and  _373
REMARK  138  A    between atoms: _373  and  _374
REMARK  139  A    between atoms: _373  and  _376
REMARK  140  A    between atoms: _376  and  _377
REMARK  141  A    between atoms: _382  and  _383
REMARK  142  A    between atoms: _385  and  _387
REMARK  143  A    between atoms: _387  and  _388
REMARK  144  A    between atoms: _387  and  _390
REMARK  145  A    between atoms: _390  and  _391
REMARK  146  A    between atoms: _394  and  _396
REMARK  147  A    between atoms: _396  and  _397
REMARK  148  A    between atoms: _396  and  _399
REMARK  149  A    between atoms: _399  and  _400
REMARK  150  A    between atoms: _400  and  _401
REMARK  151  A    between atoms: _404  and  _406
REMARK  152  A    between atoms: _406  and  _407
REMARK  153  A    between atoms: _406  and  _409
REMARK  154  A    between atoms: _409  and  _410
REMARK  155  A    between atoms: _410  and  _411
REMARK  156  A    between atoms: _411  and  _412
REMARK  157  A    between atoms: _421  and  _423
REMARK  158  A    between atoms: _423  and  _424
REMARK  159  A    between atoms: _426  and  _428
REMARK  160  A    between atoms: _428  and  _429
REMARK  161  A    between atoms: _428  and  _431
REMARK  162  A    between atoms: _431  and  _432
REMARK  163  A    between atoms: _435  and  _437
REMARK  164  A    between atoms: _437  and  _438
REMARK                            x       y       z     vdW  Elec       q    Type
REMARK                         _______ _______ _______ _____ _____    ______ ____
ROOT
ATOM      1  C   UNK A   1      36.356  60.243  13.931  0.00  0.00    +0.000 C 
ATOM      2  C   UNK A   1      37.055  61.617  13.864  0.00  0.00    +0.000 C 
ATOM      3  O   UNK A   1      36.496  62.615  14.368  0.00  0.00    +0.000 OA
ATOM      4  N   UNK A   2      38.236  61.673  13.235  0.00  0.00    +0.000 N 
ATOM      5  C   UNK A   2      38.995  62.938  13.202  0.00  0.00    +0.000 C 
ATOM      6  C   UNK A   2      39.110  63.417  11.760  0.00  0.00    +0.000 C 
ATOM      7  N   UNK A   3      38.365  64.451  11.400  0.00  0.00    +0.000 N 
ATOM      8  H   UNK A   3      37.720  64.887  12.090  0.00  0.00    +0.000 HD
ATOM      9  C   UNK A   3      38.440  64.983  10.048  0.00  0.00    +0.000 C 
ATOM     10  C   UNK A   3      37.264  65.942   9.869  0.00  0.00    +0.000 C 
ATOM     11  C   UNK A   3      35.924  65.200   9.724  0.00  0.00    +0.000 C 
ATOM     12  O   UNK A   3      34.944  65.661  10.381  0.00  0.00    +0.000 OA
ATOM     13  O   UNK A   3      35.872  64.249   8.930  0.00  0.00    +0.000 OA
ATOM     14 ZN   UNK A   1      34.262  62.991   8.437  0.00  0.00    +0.000 Zn
ATOM     15  N   UNK A   1      34.696  61.575   9.907  0.00  0.00    +0.000 N 
ATOM     16  C   UNK A   1      34.375  61.687  11.233  0.00  0.00    +0.000 A 
ATOM     17  C   UNK A   1      34.975  60.658  11.874  0.00  0.00    +0.000 A 
ATOM     18  N   UNK A   1      35.593  59.899  10.911  0.00  0.00    +0.000 NA
ATOM     19  C   UNK A   1      35.427  60.486   9.733  0.00  0.00    +0.000 A 
ATOM     20  O   UNK A   2      39.875  62.861  11.003  0.00  0.00    +0.000 OA
ATOM     21  H   UNK A   2      38.618  60.825  12.770  0.00  0.00    +0.000 HD
ATOM     22  C   UNK A   1      34.966  60.259  13.309  0.00  0.00    +0.000 C 
ENDROOT
BRANCH   9  23
ATOM     23  C   UNK A   3      39.736  65.832   9.921  0.00  0.00    +0.000 C 
ATOM     24  O   UNK A   3      39.958  66.757  10.740  0.00  0.00    +0.000 OA
ATOM     25  N   GLY A   4      40.586  65.516   8.921  0.00  0.00    +0.000 N 
ATOM     26  CA  GLY A   4      41.788  66.327   8.621  0.00  0.00    +0.000 C 
ATOM     27  CB  GLY A   4      42.658  65.356   7.773  0.00  0.00    +0.000 C 
ATOM     28  CG  GLY A   4      42.033  63.975   8.009  0.00  0.00    +0.000 C 
ATOM     29  CD  GLY A   4      40.564  64.287   8.116  0.00  0.00    +0.000 C 
BRANCH  26  30
ATOM     30  C   GLY A   4      41.379  67.571   7.847  0.00  0.00    +0.000 C 
ATOM     31  N   GLY A   5      40.715  68.449   8.578  0.00  0.00    +0.000 N 
ATOM     32  H   GLY A   5      40.637  68.299   9.604  0.00  0.00    +0.000 HD
ATOM     33  O   GLY A   4      41.719  67.748   6.681  0.00  0.00    +0.000 OA
BRANCH  31  34
ATOM     34  CA  GLY A   5      40.079  69.640   7.972  0.00  0.00    +0.000 C 
BRANCH  34  35
ATOM     35  C   GLY A   5      38.588  69.464   7.721  0.00  0.00    +0.000 C 
ATOM     36  N   TRP A   6      37.785  70.418   8.199  0.00  0.00    +0.000 N 
ATOM     37  H   TRP A   6      38.191  71.168   8.794  0.00  0.00    +0.000 HD
ATOM     38  O   GLY A   5      38.168  68.443   7.166  0.00  0.00    +0.000 OA
BRANCH  36  39
ATOM     39  CA  TRP A   6      36.354  70.438   7.910  0.00  0.00    +0.000 C 
BRANCH  39  40
ATOM     40  C   TRP A   6      35.779  71.803   8.355  0.00  0.00    +0.000 C 
ATOM     41  N   ILE A   7      35.447  71.918   9.635  0.00  0.00    +0.000 N 
ATOM     42  H   ILE A   7      35.473  71.093  10.268  0.00  0.00    +0.000 HD
ATOM     43  O   TRP A   6      35.779  72.725   7.559  0.00  0.00    +0.000 OA
BRANCH  41  44
ATOM     44  CA  ILE A   7      35.048  73.221  10.128  0.00  0.00    +0.000 C 
BRANCH  44  45
ATOM     45  C   ILE A   7      36.253  73.973  10.686  0.00  0.00    +0.000 C 
ATOM     46  N   GLN A   8      37.316  73.260  11.009  0.00  0.00    +0.000 N 
ATOM     47  H   GLN A   8      37.230  72.225  11.054  0.00  0.00    +0.000 HD
ATOM     48  O   ILE A   7      36.203  75.187  10.837  0.00  0.00    +0.000 OA
BRANCH  46  49
ATOM     49  CA  GLN A   8      38.616  73.875  11.307  0.00  0.00    +0.000 C 
BRANCH  49  50
ATOM     50  C   GLN A   8      39.655  73.332  10.334  0.00  0.00    +0.000 C 
ATOM     51  O   GLN A   8      39.457  72.299   9.677  0.00  0.00    +0.000 OA
ENDBRANCH  49  50
BRANCH  49  52
ATOM     52  CB  GLN A   8      39.065  73.521  12.710  0.00  0.00    +0.000 C 
BRANCH  52  53
ATOM     53  CG  GLN A   8      38.042  74.016  13.781  0.00  0.00    +0.000 C 
BRANCH  53  54
ATOM     54  CD  GLN A   8      38.559  73.783  15.167  0.00  0.00    +0.000 C 
ATOM     55  NE2 GLN A   8      37.714  73.206  16.029  0.00  0.00    +0.000 N 
ATOM     56 HE21 GLN A   8      38.031  72.976  16.992  0.00  0.00    +0.000 HD
ATOM     57 HE22 GLN A   8      36.740  72.988  15.736  0.00  0.00    +0.000 HD
ATOM     58  OE1 GLN A   8      39.714  74.063  15.454  0.00  0.00    +0.000 OA
ENDBRANCH  53  54
ENDBRANCH  52  53
ENDBRANCH  49  52
ENDBRANCH  46  49
ENDBRANCH  44  45
BRANCH  44  59
ATOM     59  CB  ILE A   7      33.787  73.162  11.012  0.00  0.00    +0.000 C 
ATOM     60  CG2 ILE A   7      32.543  72.621  10.146  0.00  0.00    +0.000 C 
BRANCH  59  61
ATOM     61  CG1 ILE A   7      34.028  72.304  12.206  0.00  0.00    +0.000 C 
ATOM     62  CD1 ILE A   7      32.708  71.685  12.899  0.00  0.00    +0.000 C 
ENDBRANCH  59  61
ENDBRANCH  44  59
ENDBRANCH  41  44
ENDBRANCH  39  40
BRANCH  39  63
ATOM     63  CB  TRP A   6      35.595  69.230   8.532  0.00  0.00    +0.000 C 
BRANCH  63  64
ATOM     64  CG  TRP A   6      34.126  69.352   8.223  0.00  0.00    +0.000 A 
ATOM     65  CD2 TRP A   6      33.046  69.064   9.080  0.00  0.00    +0.000 A 
ATOM     66  CE3 TRP A   6      32.972  68.596  10.398  0.00  0.00    +0.000 A 
ATOM     67  CZ3 TRP A   6      31.714  68.395  10.964  0.00  0.00    +0.000 A 
ATOM     68  CH2 TRP A   6      30.549  68.681  10.243  0.00  0.00    +0.000 A 
ATOM     69  CZ2 TRP A   6      30.585  69.118   8.942  0.00  0.00    +0.000 A 
ATOM     70  CE2 TRP A   6      31.853  69.333   8.371  0.00  0.00    +0.000 A 
ATOM     71  NE1 TRP A   6      32.187  69.750   7.104  0.00  0.00    +0.000 N 
ATOM     72  HE1 TRP A   6      31.526  70.015   6.346  0.00  0.00    +0.000 HD
ATOM     73  CD1 TRP A   6      33.590  69.750   7.027  0.00  0.00    +0.000 A 
ENDBRANCH  63  64
ENDBRANCH  39  63
ENDBRANCH  36  39
ENDBRANCH  34  35
ENDBRANCH  31  34
ENDBRANCH  26  30
ENDBRANCH   9  23
BRANCH  14  74
ATOM     74  N   UNK A   1      35.150  62.385   6.629  0.00  0.00    +0.000 N 
ATOM     75  C   UNK A   1      36.171  61.557   6.439  0.00  0.00    +0.000 A 
ATOM     76  N   UNK A   1      36.342  61.415   5.120  0.00  0.00    +0.000 NA
ATOM     77  C   UNK A   1      35.393  62.178   4.465  0.00  0.00    +0.000 A 
ATOM     78  C   UNK A   1      34.657  62.782   5.418  0.00  0.00    +0.000 A 
BRANCH  77  79
ATOM     79  C   UNK A   1      35.285  62.289   2.971  0.00  0.00    +0.000 C 
BRANCH  79  80
ATOM     80  C   UNK A   1      36.102  63.455   2.390  0.00  0.00    +0.000 C 
BRANCH  80  81
ATOM     81  C   UNK A   1      35.514  64.841   2.757  0.00  0.00    +0.000 C 
ATOM     82  N   UNK A   3      36.328  65.775   3.226  0.00  0.00    +0.000 N 
ATOM     83  H   UNK A   3      37.273  65.509   3.571  0.00  0.00    +0.000 HD
ATOM     84  O   UNK A   1      34.322  65.069   2.498  0.00  0.00    +0.000 OA
BRANCH  82  85
ATOM     85  C   UNK A   3      35.911  67.177   3.264  0.00  0.00    +0.000 C 
BRANCH  85  86
ATOM     86  C   UNK A   3      36.870  68.067   2.489  0.00  0.00    +0.000 C 
ATOM     87  O   UNK A   3      36.816  69.259   2.608  0.00  0.00    +0.000 OA
ATOM     88  N   GLY A   4      37.748  67.451   1.705  0.00  0.00    +0.000 N 
ATOM     89  H   GLY A   4      37.755  66.412   1.656  0.00  0.00    +0.000 HD
BRANCH  88  90
ATOM     90  CA  GLY A   4      38.693  68.209   0.920  0.00  0.00    +0.000 C 
BRANCH  90  91
ATOM     91  C   GLY A   4      38.166  68.350  -0.489  0.00  0.00    +0.000 C 
ATOM     92  O   GLY A   4      37.462  69.276  -0.826  0.00  0.00    +0.000 OA
ENDBRANCH  90  91
ENDBRANCH  88  90
ENDBRANCH  85  86
BRANCH  85  93
ATOM     93  C   UNK A   3      35.803  67.708   4.688  0.00  0.00    +0.000 C 
BRANCH  93  94
ATOM     94  C   UNK A   3      34.748  66.992   5.493  0.00  0.00    +0.000 C 
ATOM     95  O   UNK A   3      35.082  66.477   6.554  0.00  0.00    +0.000 OA
ATOM     96  O   UNK A   3      33.603  66.971   5.034  0.00  0.00    +0.000 OA
ENDBRANCH  93  94
ENDBRANCH  85  93
ENDBRANCH  82  85
ENDBRANCH  80  81
BRANCH  80  97
ATOM     97  N   UNK A   1      37.504  63.279   2.760  0.00  0.00    +0.000 N 
ATOM     98  H   UNK A   1      37.752  62.623   3.528  0.00  0.00    +0.000 HD
ATOM     99  C   UNK A   1      38.474  63.947   2.127  0.00  0.00    +0.000 C 
ATOM    100  O   UNK A   1      38.294  64.720   1.191  0.00  0.00    +0.000 OA
BRANCH  99 101
ATOM    101  C   UNK A   1      39.922  63.660   2.618  0.00  0.00    +0.000 C 
BRANCH 101 102
ATOM    102  N   UNK A   1      40.875  63.757   1.533  0.00  0.00    +0.000 NA
ATOM    103  H   UNK A   1      41.721  64.352   1.645  0.00  0.00    +0.000 HD
ENDBRANCH 101 102
BRANCH 101 104
ATOM    104  C   UNK A   1      40.337  64.680   3.656  0.00  0.00    +0.000 C 
BRANCH 104 105
ATOM    105  C   UNK A   1      39.322  64.895   4.734  0.00  0.00    +0.000 A 
ATOM    106  N   UNK A   1      38.667  63.863   5.403  0.00  0.00    +0.000 NA
ATOM    107  C   UNK A   1      37.809  64.408   6.264  0.00  0.00    +0.000 A 
ATOM    108  N   UNK A   1      37.911  65.734   6.202  0.00  0.00    +0.000 NA
ATOM    109  C   UNK A   1      38.844  66.057   5.250  0.00  0.00    +0.000 A 
ENDBRANCH 104 105
ENDBRANCH 101 104
ENDBRANCH  99 101
ENDBRANCH  80  97
ENDBRANCH  79  80
ENDBRANCH  77  79
ENDBRANCH  14  74
BRANCH   1 110
ATOM    110  N   UNK A   1      36.297  59.782  15.331  0.00  0.00    +0.000 NA
ATOM    111  H   UNK A   1      35.420  59.881  15.881  0.00  0.00    +0.000 HD
ENDBRANCH   1 110
BRANCH   5 112
ATOM    112  C   UNK A   2      40.436  62.761  13.760  0.00  0.00    +0.000 C 
BRANCH 112 113
ATOM    113  C   UNK A   2      40.469  62.683  15.306  0.00  0.00    +0.000 C 
ATOM    114  O   UNK A   2      41.019  63.535  15.992  0.00  0.00    +0.000 OA
ATOM    115  N   UNK A   2      39.783  61.674  15.842  0.00  0.00    +0.000 N 
ATOM    116  H   UNK A   2      39.702  61.592  16.876  0.00  0.00    +0.000 HD
ATOM    117  H   UNK A   2      39.329  60.969  15.227  0.00  0.00    +0.000 HD
ENDBRANCH 112 113
ENDBRANCH   5 112
BRANCH  14 118
ATOM    118  O   UNK A   1      32.444  62.206   7.899  0.00  0.00    +0.000 OA
BRANCH 118 119
ATOM    119  C   UNK A   1      31.878  61.112   7.759  0.00  0.00    +0.000 C 
ATOM    120  O   UNK A   1      30.645  60.922   7.873  0.00  0.00    +0.000 OA
BRANCH 119 121
ATOM    121  C   UNK A   1      32.796  59.894   7.545  0.00  0.00    +0.000 C 
BRANCH 121 122
ATOM    122  C   UNK A   1      32.146  58.794   6.695  0.00  0.00    +0.000 C 
BRANCH 122 123
ATOM    123  C   UNK A   1      32.105  59.214   5.211  0.00  0.00    +0.000 C 
ATOM    124  O   UNK A   1      31.394  60.192   4.933  0.00  0.00    +0.000 OA
ATOM    125  N   UNK A   3      32.818  58.560   4.267  0.00  0.00    +0.000 N 
ATOM    126  C   UNK A   3      33.818  57.489   4.351  0.00  0.00    +0.000 C 
ATOM    127  C   UNK A   3      34.600  57.645   3.024  0.00  0.00    +0.000 C 
ATOM    128  C   UNK A   3      33.597  58.153   2.004  0.00  0.00    +0.000 C 
ATOM    129  C   UNK A   3      32.695  59.075   2.851  0.00  0.00    +0.000 C 
BRANCH 129 130
ATOM    130  C   UNK A   3      31.226  58.989   2.391  0.00  0.00    +0.000 C 
ATOM    131  O   UNK A   3      30.502  58.115   2.845  0.00  0.00    +0.000 OA
ATOM    132  N   GLY A   4      30.812  59.892   1.494  0.00  0.00    +0.000 N 
ATOM    133  H   GLY A   4      31.503  60.456   0.959  0.00  0.00    +0.000 HD
BRANCH 132 134
ATOM    134  CA  GLY A   4      29.348  60.081   1.270  0.00  0.00    +0.000 C 
BRANCH 134 135
ATOM    135  C   GLY A   4      28.890  59.202   0.123  0.00  0.00    +0.000 C 
ATOM    136  O   GLY A   4      28.676  59.659  -1.016  0.00  0.00    +0.000 OA
ENDBRANCH 134 135
BRANCH 134 137
ATOM    137  CB  GLY A   4      29.035  61.569   1.032  0.00  0.00    +0.000 C 
BRANCH 137 138
ATOM    138  CG  GLY A   4      29.849  62.528   1.924  0.00  0.00    +0.000 A 
ATOM    139  CD2 GLY A   4      30.072  62.313   3.323  0.00  0.00    +0.000 A 
ATOM    140  CE2 GLY A   4      30.810  63.218   4.075  0.00  0.00    +0.000 A 
ATOM    141  CZ  GLY A   4      31.415  64.331   3.423  0.00  0.00    +0.000 A 
ATOM    142  CE1 GLY A   4      31.203  64.508   2.055  0.00  0.00    +0.000 A 
ATOM    143  CD1 GLY A   4      30.424  63.635   1.321  0.00  0.00    +0.000 A 
ENDBRANCH 137 138
ENDBRANCH 134 137
ENDBRANCH 132 134
ENDBRANCH 129 130
ENDBRANCH 122 123
BRANCH 122 144
ATOM    144  N   UNK A   1      32.680  57.483   7.043  0.00  0.00    +0.000 N 
ATOM    145  C   UNK A   1      31.896  56.600   7.713  0.00  0.00    +0.000 C 
ATOM    146  O   UNK A   1      30.724  56.802   8.000  0.00  0.00    +0.000 OA
ATOM    147  H   UNK A   1      33.653  57.226   6.780  0.00  0.00    +0.000 HD
BRANCH 145 148
ATOM    148  C   UNK A   1      32.554  55.339   8.202  0.00  0.00    +0.000 C 
BRANCH 148 149
ATOM    149  N   UNK A   1      33.880  55.021   7.597  0.00  0.00    +0.000 NA
ATOM    150  H   UNK A   1      34.754  55.356   8.051  0.00  0.00    +0.000 HD
ENDBRANCH 148 149
BRANCH 148 151
ATOM    151  C   UNK A   1      32.616  55.352   9.743  0.00  0.00    +0.000 C 
ATOM    152  C   UNK A   1      32.947  53.951  10.258  0.00  0.00    +0.000 C 
BRANCH 151 153
ATOM    153  C   UNK A   1      33.712  56.324  10.234  0.00  0.00    +0.000 C 
ATOM    154  C   UNK A   1      33.642  56.628  11.716  0.00  0.00    +0.000 C 
ENDBRANCH 151 153
ENDBRANCH 148 151
ENDBRANCH 145 148
ENDBRANCH 122 144
ENDBRANCH 121 122
ENDBRANCH 119 121
ENDBRANCH 118 119
ENDBRANCH  14 118
TORSDOF 50
REMARK  Name = ../refined-set-2016/3d52/3d52_pocket.pdb
REMARK  164 active torsions:
REMARK  status: ('A' for Active; 'I' for Inactive)
REMARK    1  A    between atoms: _1  and  _3
REMARK    2  A    between atoms: _14  and  _17
REMARK    3  A    between atoms: _17  and  _18
REMARK    4  A    between atoms: _25  and  _26
REMARK    5  A    between atoms: _33  and  _34
REMARK    6  A    between atoms: _39  and  _41
REMARK    7  A    between atoms: _41  and  _42
REMARK    8  A    between atoms: _44  and  _46
REMARK    9  A    between atoms: _46  and  _47
REMARK   10  A    between atoms: _46  and  _49
REMARK   11  A    between atoms: _49  and  _50
REMARK   12  A    between atoms: _60  and  _62
REMARK   13  A    between atoms: _62  and  _63
REMARK   14  A    between atoms: _62  and  _65
REMARK   15  A    between atoms: _65  and  _66
REMARK   16  A    between atoms: _69  and  _71
REMARK   17  A    between atoms: _71  and  _72
REMARK   18  A    between atoms: _71  and  _74
REMARK   19  A    between atoms: _74  and  _75
REMARK   20  A    between atoms: _75  and  _76
REMARK   21  A    between atoms: _81  and  _83
REMARK   22  A    between atoms: _83  and  _84
REMARK   23  A    between atoms: _83  and  _86
REMARK   24  A    between atoms: _86  and  _87
REMARK   25  A    between atoms: _92  and  _93
REMARK   26  A    between atoms: _95  and  _97
REMARK   27  A    between atoms: _97  and  _98
REMARK   28  A    between atoms: _97  and  _100
REMARK   29  A    between atoms: _100  and  _101
REMARK   30  A    between atoms: _104  and  _106
REMARK   31  A    between atoms: _106  and  _107
REMARK   32  A    between atoms: _106  and  _109
REMARK   33  A    between atoms: _109  and  _110
REMARK   34  A    between atoms: _110  and  _111
REMARK   35  A    between atoms: _113  and  _115
REMARK   36  A    between atoms: _115  and  _116
REMARK   37  A    between atoms: _115  and  _118
REMARK   38  A    between atoms: _118  and  _119
REMARK   39  A    between atoms: _122  and  _124
REMARK   40  A    between atoms: _124  and  _125
REMARK   41  A    between atoms: _124  and  _127
REMARK   42  A    between atoms: _127  and  _128
REMARK   43  A    between atoms: _128  and  _130
REMARK   44  A    between atoms: _130  and  ZN_440
REMARK   45  A    between atoms: _132  and  _133
REMARK   46  A    between atoms: _138  and  _140
REMARK   47  A    between atoms: _140  and  _141
REMARK   48  A    between atoms: _140  and  _143
REMARK   49  A    between atoms: _143  and  _144
REMARK   50  A    between atoms: _150  and  _152
REMARK   51  A    between atoms: _152  and  _153
REMARK   52  A    between atoms: _152  and  _155
REMARK   53  A    between atoms: _155  and  _156
REMARK   54  A    between atoms: _156  and  _157
REMARK   55  A    between atoms: _157  and  _158
REMARK   56  A    between atoms: _167  and  _169
REMARK   57  A    between atoms: _169  and  _170
REMARK   58  A    between atoms: _169  and  _172
REMARK   59  A    between atoms: _172  and  _173
REMARK   60  A    between atoms: _178  and  _179
REMARK   61  A    between atoms: _181  and  _183
REMARK   62  A    between atoms: _183  and  _184
REMARK   63  A    between atoms: _183  and  _186
REMARK   64  A    between atoms: _186  and  _187
REMARK   65  A    between atoms: _189  and  _191
REMARK   66  A    between atoms: _191  and  _192
REMARK   67  A    between atoms: _191  and  _194
REMARK   68  A    between atoms: _194  and  _195
REMARK   69  A    between atoms: _200  and  _201
REMARK   70  A    between atoms: _203  and  _205
REMARK   71  A    between atoms: _205  and  _206
REMARK   72  A    between atoms: _205  and  _208
REMARK   73  A    between atoms: _208  and  _209
REMARK   74  A    between atoms: _209  and  _210
REMARK   75  A    between atoms: _210  and  _211
REMARK   76  A    between atoms: _211  and  _212
REMARK   77  A    between atoms: _216  and  _218
REMARK   78  A    between atoms: _218  and  _219
REMARK   79  A    between atoms: _218  and  _221
REMARK   80  A    between atoms: _221  and  _222
REMARK   81  A    between atoms: _225  and  _227
REMARK   82  A    between atoms: _227  and  _228
REMARK   83  A    between atoms: _227  and  _230
REMARK   84  A    between atoms: _230  and  _231
REMARK   85  A    between atoms: _234  and  _236
REMARK   86  A    between atoms: _236  and  _237
REMARK   87  A    between atoms: _236  and  _239
REMARK   88  A    between atoms: _239  and  _240
REMARK   89  A    between atoms: _243  and  _245
REMARK   90  A    between atoms: _245  and  _246
REMARK   91  A    between atoms: _245  and  _248
REMARK   92  A    between atoms: _248  and  _249
REMARK   93  A    between atoms: _255  and  _257
REMARK   94  A    between atoms: _257  and  _258
REMARK   95  A    between atoms: _257  and  _260
REMARK   96  A    between atoms: _260  and  _261
REMARK   97  A    between atoms: _261  and  _262
REMARK   98  A    between atoms: _262  and  _263
REMARK   99  A    between atoms: _272  and  _274
REMARK  100  A    between atoms: _274  and  _275
REMARK  101  A    between atoms: _274  and  _277
REMARK  102  A    between atoms: _277  and  _278
REMARK  103  A    between atoms: _283  and  _284
REMARK  104  A    between atoms: _286  and  _288
REMARK  105  A    between atoms: _288  and  _289
REMARK  106  A    between atoms: _288  and  _291
REMARK  107  A    between atoms: _291  and  _292
REMARK  108  A    between atoms: _295  and  _297
REMARK  109  A    between atoms: _297  and  _298
REMARK  110  A    between atoms: _297  and  _300
REMARK  111  A    between atoms: _300  and  _301
REMARK  112  A    between atoms: _311  and  _313
REMARK  113  A    between atoms: _313  and  _314
REMARK  114  A    between atoms: _313  and  _316
REMARK  115  A    between atoms: _316  and  _317
REMARK  116  A    between atoms: _322  and  _324
REMARK  117  A    between atoms: _324  and  _325
REMARK  118  A    between atoms: _324  and  _327
REMARK  119  A    between atoms: _327  and  _328
REMARK  120  A    between atoms: _332  and  ZN_440
REMARK  121  A    between atoms: _333  and  _335
REMARK  122  A    between atoms: _335  and  _336
REMARK  123  A    between atoms: _335  and  _338
REMARK  124  A    between atoms: _338  and  _339
REMARK  125  A    between atoms: _342  and  _344
REMARK  126  A    between atoms: _344  and  _345
REMARK  127  A    between atoms: _347  and  _349
REMARK  128  A    between atoms: _349  and  _350
REMARK  129  A    between atoms: _349  and  _352
REMARK  130  A    between atoms: _352  and  _353
REMARK  131  A    between atoms: _356  and  _358
REMARK  132  A    between atoms: _358  and  _359
REMARK  133  A    between atoms: _358  and  _361
REMARK  134  A    between atoms: _361  and  _362
REMARK  135  A    between atoms: _365  and  _367
REMARK  136  A    between atoms: _367  and  _368
REMARK  137  A    between atoms: _371  and  _373
REMARK  138  A    between atoms: _373  and  _374
REMARK  139  A    between atoms: _373  and  _376
REMARK  140  A    between atoms: _376  and  _377
REMARK  141  A    between atoms: _382  and  _383
REMARK  142  A    between atoms: _385  and  _387
REMARK  143  A    between atoms: _387  and  _388
REMARK  144  A    between atoms: _387  and  _390
REMARK  145  A    between atoms: _390  and  _391
REMARK  146  A    between atoms: _394  and  _396
REMARK  147  A    between atoms: _396  and  _397
REMARK  148  A    between atoms: _396  and  _399
REMARK  149  A    between atoms: _399  and  _400
REMARK  150  A    between atoms: _400  and  _401
REMARK  151  A    between atoms: _404  and  _406
REMARK  152  A    between atoms: _406  and  _407
REMARK  153  A    between atoms: _406  and  _409
REMARK  154  A    between atoms: _409  and  _410
REMARK  155  A    between atoms: _410  and  _411
REMARK  156  A    between atoms: _411  and  _412
REMARK  157  A    between atoms: _421  and  _423
REMARK  158  A    between atoms: _423  and  _424
REMARK  159  A    between atoms: _426  and  _428
REMARK  160  A    between atoms: _428  and  _429
REMARK  161  A    between atoms: _428  and  _431
REMARK  162  A    between atoms: _431  and  _432
REMARK  163  A    between atoms: _435  and  _437
REMARK  164  A    between atoms: _437  and  _438
REMARK                            x       y       z     vdW  Elec       q    Type
REMARK                         _______ _______ _______ _____ _____    ______ ____
ROOT
ATOM      1  CG  TYR A   1      39.964  69.809  13.403  0.00  0.00    -0.020 A 
ATOM      2  CD2 TYR A   1      38.951  69.997  14.320  0.00  0.00    -0.001 A 
ATOM      3  CE2 TYR A   1      37.633  70.121  13.907  0.00  0.00    +0.036 A 
ATOM      4  CZ  TYR A   1      37.327  70.032  12.556  0.00  0.00    +0.134 A 
ATOM      5  CE1 TYR A   1      38.320  69.825  11.647  0.00  0.00    +0.036 A 
ATOM      6  CD1 TYR A   1      39.612  69.702  12.061  0.00  0.00    -0.001 A 
ENDROOT
BRANCH   4   7
ATOM      7  OH  TYR A   1      36.048  70.145  12.105  0.00  0.00    -0.506 OA
ATOM      8  HH  TYR A   1      35.440  70.292  12.873  0.00  0.00    +0.292 HD
ENDBRANCH   4   7
BRANCH   1   9
ATOM      9  CB  TYR A   1      41.403  69.613  13.828  0.00  0.00    +0.051 C 
BRANCH   9  10
ATOM     10  CA  TYR A   1      41.989  70.601  14.825  0.00  0.00    +0.137 C 
BRANCH  10  11
ATOM     11  N   TYR A   1      42.491  71.784  14.152  0.00  0.00    -0.239 NA
ATOM     12  H   TYR A   1      42.447  71.860  13.116  0.00  0.00    +0.142 HD
ENDBRANCH  10  11
BRANCH  10  13
ATOM     13  C   TYR A   1      43.100  69.873  15.593  0.00  0.00    +0.224 C 
ATOM     14  O   TYR A   1      42.858  69.344  16.653  0.00  0.00    -0.287 OA
ENDBRANCH  10  13
ENDBRANCH   9  10
ENDBRANCH   1   9
TORSDOF 5
REMARK  Name = ../refined-set-2016/3d52/3d52_pocket.pdb
REMARK  164 active torsions:
REMARK  status: ('A' for Active; 'I' for Inactive)
REMARK    1  A    between atoms: _1  and  _3
REMARK    2  A    between atoms: _14  and  _17
REMARK    3  A    between atoms: _17  and  _18
REMARK    4  A    between atoms: _25  and  _26
REMARK    5  A    between atoms: _33  and  _34
REMARK    6  A    between atoms: _39  and  _41
REMARK    7  A    between atoms: _41  and  _42
REMARK    8  A    between atoms: _44  and  _46
REMARK    9  A    between atoms: _46  and  _47
REMARK   10  A    between atoms: _46  and  _49
REMARK   11  A    between atoms: _49  and  _50
REMARK   12  A    between atoms: _60  and  _62
REMARK   13  A    between atoms: _62  and  _63
REMARK   14  A    between atoms: _62  and  _65
REMARK   15  A    between atoms: _65  and  _66
REMARK   16  A    between atoms: _69  and  _71
REMARK   17  A    between atoms: _71  and  _72
REMARK   18  A    between atoms: _71  and  _74
REMARK   19  A    between atoms: _74  and  _75
REMARK   20  A    between atoms: _75  and  _76
REMARK   21  A    between atoms: _81  and  _83
REMARK   22  A    between atoms: _83  and  _84
REMARK   23  A    between atoms: _83  and  _86
REMARK   24  A    between atoms: _86  and  _87
REMARK   25  A    between atoms: _92  and  _93
REMARK   26  A    between atoms: _95  and  _97
REMARK   27  A    between atoms: _97  and  _98
REMARK   28  A    between atoms: _97  and  _100
REMARK   29  A    between atoms: _100  and  _101
REMARK   30  A    between atoms: _104  and  _106
REMARK   31  A    between atoms: _106  and  _107
REMARK   32  A    between atoms: _106  and  _109
REMARK   33  A    between atoms: _109  and  _110
REMARK   34  A    between atoms: _110  and  _111
REMARK   35  A    between atoms: _113  and  _115
REMARK   36  A    between atoms: _115  and  _116
REMARK   37  A    between atoms: _115  and  _118
REMARK   38  A    between atoms: _118  and  _119
REMARK   39  A    between atoms: _122  and  _124
REMARK   40  A    between atoms: _124  and  _125
REMARK   41  A    between atoms: _124  and  _127
REMARK   42  A    between atoms: _127  and  _128
REMARK   43  A    between atoms: _128  and  _130
REMARK   44  A    between atoms: _130  and  ZN_440
REMARK   45  A    between atoms: _132  and  _133
REMARK   46  A    between atoms: _138  and  _140
REMARK   47  A    between atoms: _140  and  _141
REMARK   48  A    between atoms: _140  and  _143
REMARK   49  A    between atoms: _143  and  _144
REMARK   50  A    between atoms: _150  and  _152
REMARK   51  A    between atoms: _152  and  _153
REMARK   52  A    between atoms: _152  and  _155
REMARK   53  A    between atoms: _155  and  _156
REMARK   54  A    between atoms: _156  and  _157
REMARK   55  A    between atoms: _157  and  _158
REMARK   56  A    between atoms: _167  and  _169
REMARK   57  A    between atoms: _169  and  _170
REMARK   58  A    between atoms: _169  and  _172
REMARK   59  A    between atoms: _172  and  _173
REMARK   60  A    between atoms: _178  and  _179
REMARK   61  A    between atoms: _181  and  _183
REMARK   62  A    between atoms: _183  and  _184
REMARK   63  A    between atoms: _183  and  _186
REMARK   64  A    between atoms: _186  and  _187
REMARK   65  A    between atoms: _189  and  _191
REMARK   66  A    between atoms: _191  and  _192
REMARK   67  A    between atoms: _191  and  _194
REMARK   68  A    between atoms: _194  and  _195
REMARK   69  A    between atoms: _200  and  _201
REMARK   70  A    between atoms: _203  and  _205
REMARK   71  A    between atoms: _205  and  _206
REMARK   72  A    between atoms: _205  and  _208
REMARK   73  A    between atoms: _208  and  _209
REMARK   74  A    between atoms: _209  and  _210
REMARK   75  A    between atoms: _210  and  _211
REMARK   76  A    between atoms: _211  and  _212
REMARK   77  A    between atoms: _216  and  _218
REMARK   78  A    between atoms: _218  and  _219
REMARK   79  A    between atoms: _218  and  _221
REMARK   80  A    between atoms: _221  and  _222
REMARK   81  A    between atoms: _225  and  _227
REMARK   82  A    between atoms: _227  and  _228
REMARK   83  A    between atoms: _227  and  _230
REMARK   84  A    between atoms: _230  and  _231
REMARK   85  A    between atoms: _234  and  _236
REMARK   86  A    between atoms: _236  and  _237
REMARK   87  A    between atoms: _236  and  _239
REMARK   88  A    between atoms: _239  and  _240
REMARK   89  A    between atoms: _243  and  _245
REMARK   90  A    between atoms: _245  and  _246
REMARK   91  A    between atoms: _245  and  _248
REMARK   92  A    between atoms: _248  and  _249
REMARK   93  A    between atoms: _255  and  _257
REMARK   94  A    between atoms: _257  and  _258
REMARK   95  A    between atoms: _257  and  _260
REMARK   96  A    between atoms: _260  and  _261
REMARK   97  A    between atoms: _261  and  _262
REMARK   98  A    between atoms: _262  and  _263
REMARK   99  A    between atoms: _272  and  _274
REMARK  100  A    between atoms: _274  and  _275
REMARK  101  A    between atoms: _274  and  _277
REMARK  102  A    between atoms: _277  and  _278
REMARK  103  A    between atoms: _283  and  _284
REMARK  104  A    between atoms: _286  and  _288
REMARK  105  A    between atoms: _288  and  _289
REMARK  106  A    between atoms: _288  and  _291
REMARK  107  A    between atoms: _291  and  _292
REMARK  108  A    between atoms: _295  and  _297
REMARK  109  A    between atoms: _297  and  _298
REMARK  110  A    between atoms: _297  and  _300
REMARK  111  A    between atoms: _300  and  _301
REMARK  112  A    between atoms: _311  and  _313
REMARK  113  A    between atoms: _313  and  _314
REMARK  114  A    between atoms: _313  and  _316
REMARK  115  A    between atoms: _316  and  _317
REMARK  116  A    between atoms: _322  and  _324
REMARK  117  A    between atoms: _324  and  _325
REMARK  118  A    between atoms: _324  and  _327
REMARK  119  A    between atoms: _327  and  _328
REMARK  120  A    between atoms: _332  and  ZN_440
REMARK  121  A    between atoms: _333  and  _335
REMARK  122  A    between atoms: _335  and  _336
REMARK  123  A    between atoms: _335  and  _338
REMARK  124  A    between atoms: _338  and  _339
REMARK  125  A    between atoms: _342  and  _344
REMARK  126  A    between atoms: _344  and  _345
REMARK  127  A    between atoms: _347  and  _349
REMARK  128  A    between atoms: _349  and  _350
REMARK  129  A    between atoms: _349  and  _352
REMARK  130  A    between atoms: _352  and  _353
REMARK  131  A    between atoms: _356  and  _358
REMARK  132  A    between atoms: _358  and  _359
REMARK  133  A    between atoms: _358  and  _361
REMARK  134  A    between atoms: _361  and  _362
REMARK  135  A    between atoms: _365  and  _367
REMARK  136  A    between atoms: _367  and  _368
REMARK  137  A    between atoms: _371  and  _373
REMARK  138  A    between atoms: _373  and  _374
REMARK  139  A    between atoms: _373  and  _376
REMARK  140  A    between atoms: _376  and  _377
REMARK  141  A    between atoms: _382  and  _383
REMARK  142  A    between atoms: _385  and  _387
REMARK  143  A    between atoms: _387  and  _388
REMARK  144  A    between atoms: _387  and  _390
REMARK  145  A    between atoms: _390  and  _391
REMARK  146  A    between atoms: _394  and  _396
REMARK  147  A    between atoms: _396  and  _397
REMARK  148  A    between atoms: _396  and  _399
REMARK  149  A    between atoms: _399  and  _400
REMARK  150  A    between atoms: _400  and  _401
REMARK  151  A    between atoms: _404  and  _406
REMARK  152  A    between atoms: _406  and  _407
REMARK  153  A    between atoms: _406  and  _409
REMARK  154  A    between atoms: _409  and  _410
REMARK  155  A    between atoms: _410  and  _411
REMARK  156  A    between atoms: _411  and  _412
REMARK  157  A    between atoms: _421  and  _423
REMARK  158  A    between atoms: _423  and  _424
REMARK  159  A    between atoms: _426  and  _428
REMARK  160  A    between atoms: _428  and  _429
REMARK  161  A    between atoms: _428  and  _431
REMARK  162  A    between atoms: _431  and  _432
REMARK  163  A    between atoms: _435  and  _437
REMARK  164  A    between atoms: _437  and  _438
REMARK                            x       y       z     vdW  Elec       q    Type
REMARK                         _______ _______ _______ _____ _____    ______ ____
ROOT
ATOM      1  CA  ASP A   1      41.412  68.380  19.599  0.00  0.00    +0.144 C 
ENDROOT
BRANCH   1   2
ATOM      2  N   ASP A   1      42.098  69.663  19.347  0.00  0.00    -0.239 NA
ATOM      3  H   ASP A   1      42.706  69.747  18.508  0.00  0.00    +0.142 HD
ENDBRANCH   1   2
BRANCH   1   4
ATOM      4  C   ASP A   1      42.328  67.181  19.482  0.00  0.00    +0.225 C 
ATOM      5  O   ASP A   1      42.542  66.440  20.465  0.00  0.00    -0.287 OA
ENDBRANCH   1   4
BRANCH   1   6
ATOM      6  CB  ASP A   1      40.248  68.230  18.635  0.00  0.00    +0.139 C 
BRANCH   6   7
ATOM      7  CG  ASP A   1      39.258  69.321  18.806  0.00  0.00    +0.367 C 
ATOM      8  OD2 ASP A   1      38.454  69.171  19.734  0.00  0.00    -0.246 OA
ATOM      9  OD1 ASP A   1      39.311  70.319  18.030  0.00  0.00    -0.246 OA
ENDBRANCH   6   7
ENDBRANCH   1   6
TORSDOF 4
REMARK  Name = ../refined-set-2016/3d52/3d52_pocket.pdb
REMARK  164 active torsions:
REMARK  status: ('A' for Active; 'I' for Inactive)
REMARK    1  A    between atoms: _1  and  _3
REMARK    2  A    between atoms: _14  and  _17
REMARK    3  A    between atoms: _17  and  _18
REMARK    4  A    between atoms: _25  and  _26
REMARK    5  A    between atoms: _33  and  _34
REMARK    6  A    between atoms: _39  and  _41
REMARK    7  A    between atoms: _41  and  _42
REMARK    8  A    between atoms: _44  and  _46
REMARK    9  A    between atoms: _46  and  _47
REMARK   10  A    between atoms: _46  and  _49
REMARK   11  A    between atoms: _49  and  _50
REMARK   12  A    between atoms: _60  and  _62
REMARK   13  A    between atoms: _62  and  _63
REMARK   14  A    between atoms: _62  and  _65
REMARK   15  A    between atoms: _65  and  _66
REMARK   16  A    between atoms: _69  and  _71
REMARK   17  A    between atoms: _71  and  _72
REMARK   18  A    between atoms: _71  and  _74
REMARK   19  A    between atoms: _74  and  _75
REMARK   20  A    between atoms: _75  and  _76
REMARK   21  A    between atoms: _81  and  _83
REMARK   22  A    between atoms: _83  and  _84
REMARK   23  A    between atoms: _83  and  _86
REMARK   24  A    between atoms: _86  and  _87
REMARK   25  A    between atoms: _92  and  _93
REMARK   26  A    between atoms: _95  and  _97
REMARK   27  A    between atoms: _97  and  _98
REMARK   28  A    between atoms: _97  and  _100
REMARK   29  A    between atoms: _100  and  _101
REMARK   30  A    between atoms: _104  and  _106
REMARK   31  A    between atoms: _106  and  _107
REMARK   32  A    between atoms: _106  and  _109
REMARK   33  A    between atoms: _109  and  _110
REMARK   34  A    between atoms: _110  and  _111
REMARK   35  A    between atoms: _113  and  _115
REMARK   36  A    between atoms: _115  and  _116
REMARK   37  A    between atoms: _115  and  _118
REMARK   38  A    between atoms: _118  and  _119
REMARK   39  A    between atoms: _122  and  _124
REMARK   40  A    between atoms: _124  and  _125
REMARK   41  A    between atoms: _124  and  _127
REMARK   42  A    between atoms: _127  and  _128
REMARK   43  A    between atoms: _128  and  _130
REMARK   44  A    between atoms: _130  and  ZN_440
REMARK   45  A    between atoms: _132  and  _133
REMARK   46  A    between atoms: _138  and  _140
REMARK   47  A    between atoms: _140  and  _141
REMARK   48  A    between atoms: _140  and  _143
REMARK   49  A    between atoms: _143  and  _144
REMARK   50  A    between atoms: _150  and  _152
REMARK   51  A    between atoms: _152  and  _153
REMARK   52  A    between atoms: _152  and  _155
REMARK   53  A    between atoms: _155  and  _156
REMARK   54  A    between atoms: _156  and  _157
REMARK   55  A    between atoms: _157  and  _158
REMARK   56  A    between atoms: _167  and  _169
REMARK   57  A    between atoms: _169  and  _170
REMARK   58  A    between atoms: _169  and  _172
REMARK   59  A    between atoms: _172  and  _173
REMARK   60  A    between atoms: _178  and  _179
REMARK   61  A    between atoms: _181  and  _183
REMARK   62  A    between atoms: _183  and  _184
REMARK   63  A    between atoms: _183  and  _186
REMARK   64  A    between atoms: _186  and  _187
REMARK   65  A    between atoms: _189  and  _191
REMARK   66  A    between atoms: _191  and  _192
REMARK   67  A    between atoms: _191  and  _194
REMARK   68  A    between atoms: _194  and  _195
REMARK   69  A    between atoms: _200  and  _201
REMARK   70  A    between atoms: _203  and  _205
REMARK   71  A    between atoms: _205  and  _206
REMARK   72  A    between atoms: _205  and  _208
REMARK   73  A    between atoms: _208  and  _209
REMARK   74  A    between atoms: _209  and  _210
REMARK   75  A    between atoms: _210  and  _211
REMARK   76  A    between atoms: _211  and  _212
REMARK   77  A    between atoms: _216  and  _218
REMARK   78  A    between atoms: _218  and  _219
REMARK   79  A    between atoms: _218  and  _221
REMARK   80  A    between atoms: _221  and  _222
REMARK   81  A    between atoms: _225  and  _227
REMARK   82  A    between atoms: _227  and  _228
REMARK   83  A    between atoms: _227  and  _230
REMARK   84  A    between atoms: _230  and  _231
REMARK   85  A    between atoms: _234  and  _236
REMARK   86  A    between atoms: _236  and  _237
REMARK   87  A    between atoms: _236  and  _239
REMARK   88  A    between atoms: _239  and  _240
REMARK   89  A    between atoms: _243  and  _245
REMARK   90  A    between atoms: _245  and  _246
REMARK   91  A    between atoms: _245  and  _248
REMARK   92  A    between atoms: _248  and  _249
REMARK   93  A    between atoms: _255  and  _257
REMARK   94  A    between atoms: _257  and  _258
REMARK   95  A    between atoms: _257  and  _260
REMARK   96  A    between atoms: _260  and  _261
REMARK   97  A    between atoms: _261  and  _262
REMARK   98  A    between atoms: _262  and  _263
REMARK   99  A    between atoms: _272  and  _274
REMARK  100  A    between atoms: _274  and  _275
REMARK  101  A    between atoms: _274  and  _277
REMARK  102  A    between atoms: _277  and  _278
REMARK  103  A    between atoms: _283  and  _284
REMARK  104  A    between atoms: _286  and  _288
REMARK  105  A    between atoms: _288  and  _289
REMARK  106  A    between atoms: _288  and  _291
REMARK  107  A    between atoms: _291  and  _292
REMARK  108  A    between atoms: _295  and  _297
REMARK  109  A    between atoms: _297  and  _298
REMARK  110  A    between atoms: _297  and  _300
REMARK  111  A    between atoms: _300  and  _301
REMARK  112  A    between atoms: _311  and  _313
REMARK  113  A    between atoms: _313  and  _314
REMARK  114  A    between atoms: _313  and  _316
REMARK  115  A    between atoms: _316  and  _317
REMARK  116  A    between atoms: _322  and  _324
REMARK  117  A    between atoms: _324  and  _325
REMARK  118  A    between atoms: _324  and  _327
REMARK  119  A    between atoms: _327  and  _328
REMARK  120  A    between atoms: _332  and  ZN_440
REMARK  121  A    between atoms: _333  and  _335
REMARK  122  A    between atoms: _335  and  _336
REMARK  123  A    between atoms: _335  and  _338
REMARK  124  A    between atoms: _338  and  _339
REMARK  125  A    between atoms: _342  and  _344
REMARK  126  A    between atoms: _344  and  _345
REMARK  127  A    between atoms: _347  and  _349
REMARK  128  A    between atoms: _349  and  _350
REMARK  129  A    between atoms: _349  and  _352
REMARK  130  A    between atoms: _352  and  _353
REMARK  131  A    between atoms: _356  and  _358
REMARK  132  A    between atoms: _358  and  _359
REMARK  133  A    between atoms: _358  and  _361
REMARK  134  A    between atoms: _361  and  _362
REMARK  135  A    between atoms: _365  and  _367
REMARK  136  A    between atoms: _367  and  _368
REMARK  137  A    between atoms: _371  and  _373
REMARK  138  A    between atoms: _373  and  _374
REMARK  139  A    between atoms: _373  and  _376
REMARK  140  A    between atoms: _376  and  _377
REMARK  141  A    between atoms: _382  and  _383
REMARK  142  A    between atoms: _385  and  _387
REMARK  143  A    between atoms: _387  and  _388
REMARK  144  A    between atoms: _387  and  _390
REMARK  145  A    between atoms: _390  and  _391
REMARK  146  A    between atoms: _394  and  _396
REMARK  147  A    between atoms: _396  and  _397
REMARK  148  A    between atoms: _396  and  _399
REMARK  149  A    between atoms: _399  and  _400
REMARK  150  A    between atoms: _400  and  _401
REMARK  151  A    between atoms: _404  and  _406
REMARK  152  A    between atoms: _406  and  _407
REMARK  153  A    between atoms: _406  and  _409
REMARK  154  A    between atoms: _409  and  _410
REMARK  155  A    between atoms: _410  and  _411
REMARK  156  A    between atoms: _411  and  _412
REMARK  157  A    between atoms: _421  and  _423
REMARK  158  A    between atoms: _423  and  _424
REMARK  159  A    between atoms: _426  and  _428
REMARK  160  A    between atoms: _428  and  _429
REMARK  161  A    between atoms: _428  and  _431
REMARK  162  A    between atoms: _431  and  _432
REMARK  163  A    between atoms: _435  and  _437
REMARK  164  A    between atoms: _437  and  _438
REMARK                            x       y       z     vdW  Elec       q    Type
REMARK                         _______ _______ _______ _____ _____    ______ ____
ROOT
ATOM      1  CA  MET A   1      39.752  58.422   4.976  0.00  0.00    +0.134 C 
ENDROOT
BRANCH   1   2
ATOM      2  N   MET A   1      40.854  59.334   5.372  0.00  0.00    -0.239 NA
ATOM      3  H   MET A   1      40.634  60.222   5.867  0.00  0.00    +0.142 HD
ENDBRANCH   1   2
BRANCH   1   4
ATOM      4  C   MET A   1      39.179  59.135   3.730  0.00  0.00    +0.224 C 
ATOM      5  O   MET A   1      38.431  60.095   3.835  0.00  0.00    -0.287 OA
ENDBRANCH   1   4
BRANCH   1   6
ATOM      6  CB  MET A   1      38.718  58.394   6.114  0.00  0.00    +0.037 C 
BRANCH   6   7
ATOM      7  CG  MET A   1      37.471  57.575   5.801  0.00  0.00    +0.059 C 
BRANCH   7   8
ATOM      8  SD  MET A   1      36.301  57.673   7.187  0.00  0.00    -0.139 S 
ATOM      9  CE  MET A   1      37.288  56.944   8.497  0.00  0.00    +0.069 C 
ENDBRANCH   7   8
ENDBRANCH   6   7
ENDBRANCH   1   6
TORSDOF 5
REMARK  Name = ../refined-set-2016/3d52/3d52_pocket.pdb
REMARK  164 active torsions:
REMARK  status: ('A' for Active; 'I' for Inactive)
REMARK    1  A    between atoms: _1  and  _3
REMARK    2  A    between atoms: _14  and  _17
REMARK    3  A    between atoms: _17  and  _18
REMARK    4  A    between atoms: _25  and  _26
REMARK    5  A    between atoms: _33  and  _34
REMARK    6  A    between atoms: _39  and  _41
REMARK    7  A    between atoms: _41  and  _42
REMARK    8  A    between atoms: _44  and  _46
REMARK    9  A    between atoms: _46  and  _47
REMARK   10  A    between atoms: _46  and  _49
REMARK   11  A    between atoms: _49  and  _50
REMARK   12  A    between atoms: _60  and  _62
REMARK   13  A    between atoms: _62  and  _63
REMARK   14  A    between atoms: _62  and  _65
REMARK   15  A    between atoms: _65  and  _66
REMARK   16  A    between atoms: _69  and  _71
REMARK   17  A    between atoms: _71  and  _72
REMARK   18  A    between atoms: _71  and  _74
REMARK   19  A    between atoms: _74  and  _75
REMARK   20  A    between atoms: _75  and  _76
REMARK   21  A    between atoms: _81  and  _83
REMARK   22  A    between atoms: _83  and  _84
REMARK   23  A    between atoms: _83  and  _86
REMARK   24  A    between atoms: _86  and  _87
REMARK   25  A    between atoms: _92  and  _93
REMARK   26  A    between atoms: _95  and  _97
REMARK   27  A    between atoms: _97  and  _98
REMARK   28  A    between atoms: _97  and  _100
REMARK   29  A    between atoms: _100  and  _101
REMARK   30  A    between atoms: _104  and  _106
REMARK   31  A    between atoms: _106  and  _107
REMARK   32  A    between atoms: _106  and  _109
REMARK   33  A    between atoms: _109  and  _110
REMARK   34  A    between atoms: _110  and  _111
REMARK   35  A    between atoms: _113  and  _115
REMARK   36  A    between atoms: _115  and  _116
REMARK   37  A    between atoms: _115  and  _118
REMARK   38  A    between atoms: _118  and  _119
REMARK   39  A    between atoms: _122  and  _124
REMARK   40  A    between atoms: _124  and  _125
REMARK   41  A    between atoms: _124  and  _127
REMARK   42  A    between atoms: _127  and  _128
REMARK   43  A    between atoms: _128  and  _130
REMARK   44  A    between atoms: _130  and  ZN_440
REMARK   45  A    between atoms: _132  and  _133
REMARK   46  A    between atoms: _138  and  _140
REMARK   47  A    between atoms: _140  and  _141
REMARK   48  A    between atoms: _140  and  _143
REMARK   49  A    between atoms: _143  and  _144
REMARK   50  A    between atoms: _150  and  _152
REMARK   51  A    between atoms: _152  and  _153
REMARK   52  A    between atoms: _152  and  _155
REMARK   53  A    between atoms: _155  and  _156
REMARK   54  A    between atoms: _156  and  _157
REMARK   55  A    between atoms: _157  and  _158
REMARK   56  A    between atoms: _167  and  _169
REMARK   57  A    between atoms: _169  and  _170
REMARK   58  A    between atoms: _169  and  _172
REMARK   59  A    between atoms: _172  and  _173
REMARK   60  A    between atoms: _178  and  _179
REMARK   61  A    between atoms: _181  and  _183
REMARK   62  A    between atoms: _183  and  _184
REMARK   63  A    between atoms: _183  and  _186
REMARK   64  A    between atoms: _186  and  _187
REMARK   65  A    between atoms: _189  and  _191
REMARK   66  A    between atoms: _191  and  _192
REMARK   67  A    between atoms: _191  and  _194
REMARK   68  A    between atoms: _194  and  _195
REMARK   69  A    between atoms: _200  and  _201
REMARK   70  A    between atoms: _203  and  _205
REMARK   71  A    between atoms: _205  and  _206
REMARK   72  A    between atoms: _205  and  _208
REMARK   73  A    between atoms: _208  and  _209
REMARK   74  A    between atoms: _209  and  _210
REMARK   75  A    between atoms: _210  and  _211
REMARK   76  A    between atoms: _211  and  _212
REMARK   77  A    between atoms: _216  and  _218
REMARK   78  A    between atoms: _218  and  _219
REMARK   79  A    between atoms: _218  and  _221
REMARK   80  A    between atoms: _221  and  _222
REMARK   81  A    between atoms: _225  and  _227
REMARK   82  A    between atoms: _227  and  _228
REMARK   83  A    between atoms: _227  and  _230
REMARK   84  A    between atoms: _230  and  _231
REMARK   85  A    between atoms: _234  and  _236
REMARK   86  A    between atoms: _236  and  _237
REMARK   87  A    between atoms: _236  and  _239
REMARK   88  A    between atoms: _239  and  _240
REMARK   89  A    between atoms: _243  and  _245
REMARK   90  A    between atoms: _245  and  _246
REMARK   91  A    between atoms: _245  and  _248
REMARK   92  A    between atoms: _248  and  _249
REMARK   93  A    between atoms: _255  and  _257
REMARK   94  A    between atoms: _257  and  _258
REMARK   95  A    between atoms: _257  and  _260
REMARK   96  A    between atoms: _260  and  _261
REMARK   97  A    between atoms: _261  and  _262
REMARK   98  A    between atoms: _262  and  _263
REMARK   99  A    between atoms: _272  and  _274
REMARK  100  A    between atoms: _274  and  _275
REMARK  101  A    between atoms: _274  and  _277
REMARK  102  A    between atoms: _277  and  _278
REMARK  103  A    between atoms: _283  and  _284
REMARK  104  A    between atoms: _286  and  _288
REMARK  105  A    between atoms: _288  and  _289
REMARK  106  A    between atoms: _288  and  _291
REMARK  107  A    between atoms: _291  and  _292
REMARK  108  A    between atoms: _295  and  _297
REMARK  109  A    between atoms: _297  and  _298
REMARK  110  A    between atoms: _297  and  _300
REMARK  111  A    between atoms: _300  and  _301
REMARK  112  A    between atoms: _311  and  _313
REMARK  113  A    between atoms: _313  and  _314
REMARK  114  A    between atoms: _313  and  _316
REMARK  115  A    between atoms: _316  and  _317
REMARK  116  A    between atoms: _322  and  _324
REMARK  117  A    between atoms: _324  and  _325
REMARK  118  A    between atoms: _324  and  _327
REMARK  119  A    between atoms: _327  and  _328
REMARK  120  A    between atoms: _332  and  ZN_440
REMARK  121  A    between atoms: _333  and  _335
REMARK  122  A    between atoms: _335  and  _336
REMARK  123  A    between atoms: _335  and  _338
REMARK  124  A    between atoms: _338  and  _339
REMARK  125  A    between atoms: _342  and  _344
REMARK  126  A    between atoms: _344  and  _345
REMARK  127  A    between atoms: _347  and  _349
REMARK  128  A    between atoms: _349  and  _350
REMARK  129  A    between atoms: _349  and  _352
REMARK  130  A    between atoms: _352  and  _353
REMARK  131  A    between atoms: _356  and  _358
REMARK  132  A    between atoms: _358  and  _359
REMARK  133  A    between atoms: _358  and  _361
REMARK  134  A    between atoms: _361  and  _362
REMARK  135  A    between atoms: _365  and  _367
REMARK  136  A    between atoms: _367  and  _368
REMARK  137  A    between atoms: _371  and  _373
REMARK  138  A    between atoms: _373  and  _374
REMARK  139  A    between atoms: _373  and  _376
REMARK  140  A    between atoms: _376  and  _377
REMARK  141  A    between atoms: _382  and  _383
REMARK  142  A    between atoms: _385  and  _387
REMARK  143  A    between atoms: _387  and  _388
REMARK  144  A    between atoms: _387  and  _390
REMARK  145  A    between atoms: _390  and  _391
REMARK  146  A    between atoms: _394  and  _396
REMARK  147  A    between atoms: _396  and  _397
REMARK  148  A    between atoms: _396  and  _399
REMARK  149  A    between atoms: _399  and  _400
REMARK  150  A    between atoms: _400  and  _401
REMARK  151  A    between atoms: _404  and  _406
REMARK  152  A    between atoms: _406  and  _407
REMARK  153  A    between atoms: _406  and  _409
REMARK  154  A    between atoms: _409  and  _410
REMARK  155  A    between atoms: _410  and  _411
REMARK  156  A    between atoms: _411  and  _412
REMARK  157  A    between atoms: _421  and  _423
REMARK  158  A    between atoms: _423  and  _424
REMARK  159  A    between atoms: _426  and  _428
REMARK  160  A    between atoms: _428  and  _429
REMARK  161  A    between atoms: _428  and  _431
REMARK  162  A    between atoms: _431  and  _432
REMARK  163  A    between atoms: _435  and  _437
REMARK  164  A    between atoms: _437  and  _438
REMARK                            x       y       z     vdW  Elec       q    Type
REMARK                         _______ _______ _______ _____ _____    ______ ____
ROOT
ATOM      1  NE  ARG A   1      28.509  60.217   6.116  0.00  0.00    -0.265 N 
ATOM      2  CZ  ARG A   1      27.610  60.923   6.789  0.00  0.00    +0.342 C 
ATOM      3  NH2 ARG A   1      28.044  61.735   7.740  0.00  0.00    -0.292 N 
ATOM      4 HH21 ARG A   1      27.367  62.303   8.287  0.00  0.00    +0.255 HD
ATOM      5 HH22 ARG A   1      29.062  61.805   7.940  0.00  0.00    +0.255 HD
ATOM      6  NH1 ARG A   1      26.276  60.777   6.588  0.00  0.00    -0.292 N 
ATOM      7 HH11 ARG A   1      25.602  61.349   7.136  0.00  0.00    +0.255 HD
ATOM      8 HH12 ARG A   1      25.928  60.093   5.886  0.00  0.00    +0.255 HD
ATOM      9  HE  ARG A   1      29.497  60.301   6.430  0.00  0.00    +0.259 HD
ENDROOT
BRANCH   1  10
ATOM     10  CD  ARG A   1      28.256  59.325   4.969  0.00  0.00    +0.174 C 
BRANCH  10  11
ATOM     11  CG  ARG A   1      27.883  57.914   5.313  0.00  0.00    +0.045 C 
BRANCH  11  12
ATOM     12  CB  ARG A   1      27.780  57.148   4.044  0.00  0.00    +0.029 C 
BRANCH  12  13
ATOM     13  CA  ARG A   1      27.112  55.763   4.244  0.00  0.00    +0.133 C 
BRANCH  13  14
ATOM     14  N   ARG A   1      28.078  54.813   4.840  0.00  0.00    -0.239 NA
ATOM     15  H   ARG A   1      29.093  54.882   4.625  0.00  0.00    +0.142 HD
ENDBRANCH  13  14
BRANCH  13  16
ATOM     16  C   ARG A   1      26.617  55.200   2.928  0.00  0.00    +0.224 C 
ATOM     17  O   ARG A   1      27.125  55.457   1.825  0.00  0.00    -0.287 OA
ENDBRANCH  13  16
ENDBRANCH  12  13
ENDBRANCH  11  12
ENDBRANCH  10  11
ENDBRANCH   1  10
TORSDOF 6
REMARK  Name = ../refined-set-2016/3d52/3d52_pocket.pdb
REMARK  164 active torsions:
REMARK  status: ('A' for Active; 'I' for Inactive)
REMARK    1  A    between atoms: _1  and  _3
REMARK    2  A    between atoms: _14  and  _17
REMARK    3  A    between atoms: _17  and  _18
REMARK    4  A    between atoms: _25  and  _26
REMARK    5  A    between atoms: _33  and  _34
REMARK    6  A    between atoms: _39  and  _41
REMARK    7  A    between atoms: _41  and  _42
REMARK    8  A    between atoms: _44  and  _46
REMARK    9  A    between atoms: _46  and  _47
REMARK   10  A    between atoms: _46  and  _49
REMARK   11  A    between atoms: _49  and  _50
REMARK   12  A    between atoms: _60  and  _62
REMARK   13  A    between atoms: _62  and  _63
REMARK   14  A    between atoms: _62  and  _65
REMARK   15  A    between atoms: _65  and  _66
REMARK   16  A    between atoms: _69  and  _71
REMARK   17  A    between atoms: _71  and  _72
REMARK   18  A    between atoms: _71  and  _74
REMARK   19  A    between atoms: _74  and  _75
REMARK   20  A    between atoms: _75  and  _76
REMARK   21  A    between atoms: _81  and  _83
REMARK   22  A    between atoms: _83  and  _84
REMARK   23  A    between atoms: _83  and  _86
REMARK   24  A    between atoms: _86  and  _87
REMARK   25  A    between atoms: _92  and  _93
REMARK   26  A    between atoms: _95  and  _97
REMARK   27  A    between atoms: _97  and  _98
REMARK   28  A    between atoms: _97  and  _100
REMARK   29  A    between atoms: _100  and  _101
REMARK   30  A    between atoms: _104  and  _106
REMARK   31  A    between atoms: _106  and  _107
REMARK   32  A    between atoms: _106  and  _109
REMARK   33  A    between atoms: _109  and  _110
REMARK   34  A    between atoms: _110  and  _111
REMARK   35  A    between atoms: _113  and  _115
REMARK   36  A    between atoms: _115  and  _116
REMARK   37  A    between atoms: _115  and  _118
REMARK   38  A    between atoms: _118  and  _119
REMARK   39  A    between atoms: _122  and  _124
REMARK   40  A    between atoms: _124  and  _125
REMARK   41  A    between atoms: _124  and  _127
REMARK   42  A    between atoms: _127  and  _128
REMARK   43  A    between atoms: _128  and  _130
REMARK   44  A    between atoms: _130  and  ZN_440
REMARK   45  A    between atoms: _132  and  _133
REMARK   46  A    between atoms: _138  and  _140
REMARK   47  A    between atoms: _140  and  _141
REMARK   48  A    between atoms: _140  and  _143
REMARK   49  A    between atoms: _143  and  _144
REMARK   50  A    between atoms: _150  and  _152
REMARK   51  A    between atoms: _152  and  _153
REMARK   52  A    between atoms: _152  and  _155
REMARK   53  A    between atoms: _155  and  _156
REMARK   54  A    between atoms: _156  and  _157
REMARK   55  A    between atoms: _157  and  _158
REMARK   56  A    between atoms: _167  and  _169
REMARK   57  A    between atoms: _169  and  _170
REMARK   58  A    between atoms: _169  and  _172
REMARK   59  A    between atoms: _172  and  _173
REMARK   60  A    between atoms: _178  and  _179
REMARK   61  A    between atoms: _181  and  _183
REMARK   62  A    between atoms: _183  and  _184
REMARK   63  A    between atoms: _183  and  _186
REMARK   64  A    between atoms: _186  and  _187
REMARK   65  A    between atoms: _189  and  _191
REMARK   66  A    between atoms: _191  and  _192
REMARK   67  A    between atoms: _191  and  _194
REMARK   68  A    between atoms: _194  and  _195
REMARK   69  A    between atoms: _200  and  _201
REMARK   70  A    between atoms: _203  and  _205
REMARK   71  A    between atoms: _205  and  _206
REMARK   72  A    between atoms: _205  and  _208
REMARK   73  A    between atoms: _208  and  _209
REMARK   74  A    between atoms: _209  and  _210
REMARK   75  A    between atoms: _210  and  _211
REMARK   76  A    between atoms: _211  and  _212
REMARK   77  A    between atoms: _216  and  _218
REMARK   78  A    between atoms: _218  and  _219
REMARK   79  A    between atoms: _218  and  _221
REMARK   80  A    between atoms: _221  and  _222
REMARK   81  A    between atoms: _225  and  _227
REMARK   82  A    between atoms: _227  and  _228
REMARK   83  A    between atoms: _227  and  _230
REMARK   84  A    between atoms: _230  and  _231
REMARK   85  A    between atoms: _234  and  _236
REMARK   86  A    between atoms: _236  and  _237
REMARK   87  A    between atoms: _236  and  _239
REMARK   88  A    between atoms: _239  and  _240
REMARK   89  A    between atoms: _243  and  _245
REMARK   90  A    between atoms: _245  and  _246
REMARK   91  A    between atoms: _245  and  _248
REMARK   92  A    between atoms: _248  and  _249
REMARK   93  A    between atoms: _255  and  _257
REMARK   94  A    between atoms: _257  and  _258
REMARK   95  A    between atoms: _257  and  _260
REMARK   96  A    between atoms: _260  and  _261
REMARK   97  A    between atoms: _261  and  _262
REMARK   98  A    between atoms: _262  and  _263
REMARK   99  A    between atoms: _272  and  _274
REMARK  100  A    between atoms: _274  and  _275
REMARK  101  A    between atoms: _274  and  _277
REMARK  102  A    between atoms: _277  and  _278
REMARK  103  A    between atoms: _283  and  _284
REMARK  104  A    between atoms: _286  and  _288
REMARK  105  A    between atoms: _288  and  _289
REMARK  106  A    between atoms: _288  and  _291
REMARK  107  A    between atoms: _291  and  _292
REMARK  108  A    between atoms: _295  and  _297
REMARK  109  A    between atoms: _297  and  _298
REMARK  110  A    between atoms: _297  and  _300
REMARK  111  A    between atoms: _300  and  _301
REMARK  112  A    between atoms: _311  and  _313
REMARK  113  A    between atoms: _313  and  _314
REMARK  114  A    between atoms: _313  and  _316
REMARK  115  A    between atoms: _316  and  _317
REMARK  116  A    between atoms: _322  and  _324
REMARK  117  A    between atoms: _324  and  _325
REMARK  118  A    between atoms: _324  and  _327
REMARK  119  A    between atoms: _327  and  _328
REMARK  120  A    between atoms: _332  and  ZN_440
REMARK  121  A    between atoms: _333  and  _335
REMARK  122  A    between atoms: _335  and  _336
REMARK  123  A    between atoms: _335  and  _338
REMARK  124  A    between atoms: _338  and  _339
REMARK  125  A    between atoms: _342  and  _344
REMARK  126  A    between atoms: _344  and  _345
REMARK  127  A    between atoms: _347  and  _349
REMARK  128  A    between atoms: _349  and  _350
REMARK  129  A    between atoms: _349  and  _352
REMARK  130  A    between atoms: _352  and  _353
REMARK  131  A    between atoms: _356  and  _358
REMARK  132  A    between atoms: _358  and  _359
REMARK  133  A    between atoms: _358  and  _361
REMARK  134  A    between atoms: _361  and  _362
REMARK  135  A    between atoms: _365  and  _367
REMARK  136  A    between atoms: _367  and  _368
REMARK  137  A    between atoms: _371  and  _373
REMARK  138  A    between atoms: _373  and  _374
REMARK  139  A    between atoms: _373  and  _376
REMARK  140  A    between atoms: _376  and  _377
REMARK  141  A    between atoms: _382  and  _383
REMARK  142  A    between atoms: _385  and  _387
REMARK  143  A    between atoms: _387  and  _388
REMARK  144  A    between atoms: _387  and  _390
REMARK  145  A    between atoms: _390  and  _391
REMARK  146  A    between atoms: _394  and  _396
REMARK  147  A    between atoms: _396  and  _397
REMARK  148  A    between atoms: _396  and  _399
REMARK  149  A    between atoms: _399  and  _400
REMARK  150  A    between atoms: _400  and  _401
REMARK  151  A    between atoms: _404  and  _406
REMARK  152  A    between atoms: _406  and  _407
REMARK  153  A    between atoms: _406  and  _409
REMARK  154  A    between atoms: _409  and  _410
REMARK  155  A    between atoms: _410  and  _411
REMARK  156  A    between atoms: _411  and  _412
REMARK  157  A    between atoms: _421  and  _423
REMARK  158  A    between atoms: _423  and  _424
REMARK  159  A    between atoms: _426  and  _428
REMARK  160  A    between atoms: _428  and  _429
REMARK  161  A    between atoms: _428  and  _431
REMARK  162  A    between atoms: _431  and  _432
REMARK  163  A    between atoms: _435  and  _437
REMARK  164  A    between atoms: _437  and  _438
REMARK                            x       y       z     vdW  Elec       q    Type
REMARK                         _______ _______ _______ _____ _____    ______ ____
ROOT
ATOM      1  CA  SER A   2      25.079  57.102  11.593  0.00  0.00    +0.178 C 
ENDROOT
BRANCH   1   3
ATOM      2  C   TYR A   1      23.106  56.697  10.217  0.00  0.00    +0.239 C 
ATOM      3  N   SER A   2      23.801  56.426  11.322  0.00  0.00    -0.295 N 
ATOM      4  H   SER A   2      23.435  55.728  12.001  0.00  0.00    +0.150 HD
ATOM      5  O   TYR A   1      23.493  57.558   9.406  0.00  0.00    -0.274 OA
BRANCH   2   6
ATOM      6  CA  TYR A   1      21.725  56.021  10.048  0.00  0.00    +0.149 C 
BRANCH   6   7
ATOM      7  N   TYR A   1      21.633  54.715  10.701  0.00  0.00    -0.238 NA
ATOM      8  H   TYR A   1      21.023  54.596  11.535  0.00  0.00    +0.142 HD
ENDBRANCH   6   7
BRANCH   6   9
ATOM      9  CB  TYR A   1      20.599  56.886  10.602  0.00  0.00    +0.053 C 
BRANCH   9  10
ATOM     10  CG  TYR A   1      20.698  58.410  10.423  0.00  0.00    -0.020 A 
ATOM     11  CD2 TYR A   1      21.084  59.192  11.489  0.00  0.00    -0.001 A 
ATOM     12  CE2 TYR A   1      21.160  60.575  11.393  0.00  0.00    +0.036 A 
ATOM     13  CZ  TYR A   1      20.823  61.169  10.203  0.00  0.00    +0.134 A 
ATOM     14  CE1 TYR A   1      20.386  60.424   9.096  0.00  0.00    +0.036 A 
ATOM     15  CD1 TYR A   1      20.316  59.009   9.226  0.00  0.00    -0.001 A 
BRANCH  13  16
ATOM     16  OH  TYR A   1      20.909  62.562  10.268  0.00  0.00    -0.506 OA
ATOM     17  HH  TYR A   1      20.658  62.948   9.392  0.00  0.00    +0.292 HD
ENDBRANCH  13  16
ENDBRANCH   9  10
ENDBRANCH   6   9
ENDBRANCH   2   6
ENDBRANCH   1   3
BRANCH   1  18
ATOM     18  C   SER A   2      26.064  56.179  12.276  0.00  0.00    +0.243 C 
ATOM     19  O   SER A   2      25.698  55.061  12.710  0.00  0.00    -0.273 OA
ATOM     20  N   TYR A   3      27.309  56.660  12.404  0.00  0.00    -0.298 N 
ATOM     21  H   TYR A   3      27.552  57.566  11.954  0.00  0.00    +0.150 HD
BRANCH  20  22
ATOM     22  CA  TYR A   3      28.325  55.947  13.155  0.00  0.00    +0.141 C 
BRANCH  22  23
ATOM     23  C   TYR A   3      28.414  56.400  14.602  0.00  0.00    +0.227 C 
ATOM     24  O   TYR A   3      29.294  55.904  15.363  0.00  0.00    -0.286 OA
ENDBRANCH  22  23
BRANCH  22  25
ATOM     25  CB  TYR A   3      29.726  56.129  12.497  0.00  0.00    +0.054 C 
BRANCH  25  26
ATOM     26  CG  TYR A   3      30.096  57.582  12.306  0.00  0.00    -0.020 A 
ATOM     27  CD2 TYR A   3      30.549  58.337  13.390  0.00  0.00    -0.001 A 
ATOM     28  CE2 TYR A   3      30.880  59.700  13.225  0.00  0.00    +0.036 A 
ATOM     29  CZ  TYR A   3      30.781  60.244  11.937  0.00  0.00    +0.134 A 
ATOM     30  CE1 TYR A   3      30.388  59.499  10.856  0.00  0.00    +0.036 A 
ATOM     31  CD1 TYR A   3      30.043  58.159  11.048  0.00  0.00    -0.001 A 
BRANCH  29  32
ATOM     32  OH  TYR A   3      31.085  61.569  11.664  0.00  0.00    -0.506 OA
ATOM     33  HH  TYR A   3      31.357  62.023  12.501  0.00  0.00    +0.292 HD
ENDBRANCH  29  32
ENDBRANCH  25  26
ENDBRANCH  22  25
ENDBRANCH  20  22
ENDBRANCH   1  18
BRANCH   1  34
ATOM     34  CB  SER A   2      24.778  58.295  12.531  0.00  0.00    +0.166 C 
BRANCH  34  35
ATOM     35  OG  SER A   2      25.967  59.030  12.870  0.00  0.00    -0.380 OA
ATOM     36  H   SER A   2      26.382  59.384  12.044  0.00  0.00    +0.211 HD
ENDBRANCH  34  35
ENDBRANCH   1  34
TORSDOF 14
REMARK  Name = ../refined-set-2016/3d52/3d52_pocket.pdb
REMARK  164 active torsions:
REMARK  status: ('A' for Active; 'I' for Inactive)
REMARK    1  A    between atoms: _1  and  _3
REMARK    2  A    between atoms: _14  and  _17
REMARK    3  A    between atoms: _17  and  _18
REMARK    4  A    between atoms: _25  and  _26
REMARK    5  A    between atoms: _33  and  _34
REMARK    6  A    between atoms: _39  and  _41
REMARK    7  A    between atoms: _41  and  _42
REMARK    8  A    between atoms: _44  and  _46
REMARK    9  A    between atoms: _46  and  _47
REMARK   10  A    between atoms: _46  and  _49
REMARK   11  A    between atoms: _49  and  _50
REMARK   12  A    between atoms: _60  and  _62
REMARK   13  A    between atoms: _62  and  _63
REMARK   14  A    between atoms: _62  and  _65
REMARK   15  A    between atoms: _65  and  _66
REMARK   16  A    between atoms: _69  and  _71
REMARK   17  A    between atoms: _71  and  _72
REMARK   18  A    between atoms: _71  and  _74
REMARK   19  A    between atoms: _74  and  _75
REMARK   20  A    between atoms: _75  and  _76
REMARK   21  A    between atoms: _81  and  _83
REMARK   22  A    between atoms: _83  and  _84
REMARK   23  A    between atoms: _83  and  _86
REMARK   24  A    between atoms: _86  and  _87
REMARK   25  A    between atoms: _92  and  _93
REMARK   26  A    between atoms: _95  and  _97
REMARK   27  A    between atoms: _97  and  _98
REMARK   28  A    between atoms: _97  and  _100
REMARK   29  A    between atoms: _100  and  _101
REMARK   30  A    between atoms: _104  and  _106
REMARK   31  A    between atoms: _106  and  _107
REMARK   32  A    between atoms: _106  and  _109
REMARK   33  A    between atoms: _109  and  _110
REMARK   34  A    between atoms: _110  and  _111
REMARK   35  A    between atoms: _113  and  _115
REMARK   36  A    between atoms: _115  and  _116
REMARK   37  A    between atoms: _115  and  _118
REMARK   38  A    between atoms: _118  and  _119
REMARK   39  A    between atoms: _122  and  _124
REMARK   40  A    between atoms: _124  and  _125
REMARK   41  A    between atoms: _124  and  _127
REMARK   42  A    between atoms: _127  and  _128
REMARK   43  A    between atoms: _128  and  _130
REMARK   44  A    between atoms: _130  and  ZN_440
REMARK   45  A    between atoms: _132  and  _133
REMARK   46  A    between atoms: _138  and  _140
REMARK   47  A    between atoms: _140  and  _141
REMARK   48  A    between atoms: _140  and  _143
REMARK   49  A    between atoms: _143  and  _144
REMARK   50  A    between atoms: _150  and  _152
REMARK   51  A    between atoms: _152  and  _153
REMARK   52  A    between atoms: _152  and  _155
REMARK   53  A    between atoms: _155  and  _156
REMARK   54  A    between atoms: _156  and  _157
REMARK   55  A    between atoms: _157  and  _158
REMARK   56  A    between atoms: _167  and  _169
REMARK   57  A    between atoms: _169  and  _170
REMARK   58  A    between atoms: _169  and  _172
REMARK   59  A    between atoms: _172  and  _173
REMARK   60  A    between atoms: _178  and  _179
REMARK   61  A    between atoms: _181  and  _183
REMARK   62  A    between atoms: _183  and  _184
REMARK   63  A    between atoms: _183  and  _186
REMARK   64  A    between atoms: _186  and  _187
REMARK   65  A    between atoms: _189  and  _191
REMARK   66  A    between atoms: _191  and  _192
REMARK   67  A    between atoms: _191  and  _194
REMARK   68  A    between atoms: _194  and  _195
REMARK   69  A    between atoms: _200  and  _201
REMARK   70  A    between atoms: _203  and  _205
REMARK   71  A    between atoms: _205  and  _206
REMARK   72  A    between atoms: _205  and  _208
REMARK   73  A    between atoms: _208  and  _209
REMARK   74  A    between atoms: _209  and  _210
REMARK   75  A    between atoms: _210  and  _211
REMARK   76  A    between atoms: _211  and  _212
REMARK   77  A    between atoms: _216  and  _218
REMARK   78  A    between atoms: _218  and  _219
REMARK   79  A    between atoms: _218  and  _221
REMARK   80  A    between atoms: _221  and  _222
REMARK   81  A    between atoms: _225  and  _227
REMARK   82  A    between atoms: _227  and  _228
REMARK   83  A    between atoms: _227  and  _230
REMARK   84  A    between atoms: _230  and  _231
REMARK   85  A    between atoms: _234  and  _236
REMARK   86  A    between atoms: _236  and  _237
REMARK   87  A    between atoms: _236  and  _239
REMARK   88  A    between atoms: _239  and  _240
REMARK   89  A    between atoms: _243  and  _245
REMARK   90  A    between atoms: _245  and  _246
REMARK   91  A    between atoms: _245  and  _248
REMARK   92  A    between atoms: _248  and  _249
REMARK   93  A    between atoms: _255  and  _257
REMARK   94  A    between atoms: _257  and  _258
REMARK   95  A    between atoms: _257  and  _260
REMARK   96  A    between atoms: _260  and  _261
REMARK   97  A    between atoms: _261  and  _262
REMARK   98  A    between atoms: _262  and  _263
REMARK   99  A    between atoms: _272  and  _274
REMARK  100  A    between atoms: _274  and  _275
REMARK  101  A    between atoms: _274  and  _277
REMARK  102  A    between atoms: _277  and  _278
REMARK  103  A    between atoms: _283  and  _284
REMARK  104  A    between atoms: _286  and  _288
REMARK  105  A    between atoms: _288  and  _289
REMARK  106  A    between atoms: _288  and  _291
REMARK  107  A    between atoms: _291  and  _292
REMARK  108  A    between atoms: _295  and  _297
REMARK  109  A    between atoms: _297  and  _298
REMARK  110  A    between atoms: _297  and  _300
REMARK  111  A    between atoms: _300  and  _301
REMARK  112  A    between atoms: _311  and  _313
REMARK  113  A    between atoms: _313  and  _314
REMARK  114  A    between atoms: _313  and  _316
REMARK  115  A    between atoms: _316  and  _317
REMARK  116  A    between atoms: _322  and  _324
REMARK  117  A    between atoms: _324  and  _325
REMARK  118  A    between atoms: _324  and  _327
REMARK  119  A    between atoms: _327  and  _328
REMARK  120  A    between atoms: _332  and  ZN_440
REMARK  121  A    between atoms: _333  and  _335
REMARK  122  A    between atoms: _335  and  _336
REMARK  123  A    between atoms: _335  and  _338
REMARK  124  A    between atoms: _338  and  _339
REMARK  125  A    between atoms: _342  and  _344
REMARK  126  A    between atoms: _344  and  _345
REMARK  127  A    between atoms: _347  and  _349
REMARK  128  A    between atoms: _349  and  _350
REMARK  129  A    between atoms: _349  and  _352
REMARK  130  A    between atoms: _352  and  _353
REMARK  131  A    between atoms: _356  and  _358
REMARK  132  A    between atoms: _358  and  _359
REMARK  133  A    between atoms: _358  and  _361
REMARK  134  A    between atoms: _361  and  _362
REMARK  135  A    between atoms: _365  and  _367
REMARK  136  A    between atoms: _367  and  _368
REMARK  137  A    between atoms: _371  and  _373
REMARK  138  A    between atoms: _373  and  _374
REMARK  139  A    between atoms: _373  and  _376
REMARK  140  A    between atoms: _376  and  _377
REMARK  141  A    between atoms: _382  and  _383
REMARK  142  A    between atoms: _385  and  _387
REMARK  143  A    between atoms: _387  and  _388
REMARK  144  A    between atoms: _387  and  _390
REMARK  145  A    between atoms: _390  and  _391
REMARK  146  A    between atoms: _394  and  _396
REMARK  147  A    between atoms: _396  and  _397
REMARK  148  A    between atoms: _396  and  _399
REMARK  149  A    between atoms: _399  and  _400
REMARK  150  A    between atoms: _400  and  _401
REMARK  151  A    between atoms: _404  and  _406
REMARK  152  A    between atoms: _406  and  _407
REMARK  153  A    between atoms: _406  and  _409
REMARK  154  A    between atoms: _409  and  _410
REMARK  155  A    between atoms: _410  and  _411
REMARK  156  A    between atoms: _411  and  _412
REMARK  157  A    between atoms: _421  and  _423
REMARK  158  A    between atoms: _423  and  _424
REMARK  159  A    between atoms: _426  and  _428
REMARK  160  A    between atoms: _428  and  _429
REMARK  161  A    between atoms: _428  and  _431
REMARK  162  A    between atoms: _431  and  _432
REMARK  163  A    between atoms: _435  and  _437
REMARK  164  A    between atoms: _437  and  _438
REMARK                            x       y       z     vdW  Elec       q    Type
REMARK                         _______ _______ _______ _____ _____    ______ ____
ROOT
ATOM      1  CG  LYS A   1      31.323  63.040  26.266  0.00  0.00    -0.000 C 
ENDROOT
BRANCH   1   2
ATOM      2  CB  LYS A   1      30.408  61.854  26.135  0.00  0.00    +0.025 C 
BRANCH   2   3
ATOM      3  CA  LYS A   1      29.640  61.601  27.427  0.00  0.00    +0.133 C 
BRANCH   3   4
ATOM      4  N   LYS A   1      29.238  60.190  27.566  0.00  0.00    -0.239 NA
ATOM      5  H   LYS A   1      29.151  59.590  26.721  0.00  0.00    +0.142 HD
ENDBRANCH   3   4
BRANCH   3   6
ATOM      6  C   LYS A   1      28.441  62.554  27.456  0.00  0.00    +0.224 C 
ATOM      7  O   LYS A   1      28.620  63.771  27.384  0.00  0.00    -0.287 OA
ENDBRANCH   3   6
ENDBRANCH   2   3
ENDBRANCH   1   2
BRANCH   1   8
ATOM      8  CD  LYS A   1      32.206  63.247  25.018  0.00  0.00    -0.024 C 
BRANCH   8   9
ATOM      9  CE  LYS A   1      33.125  64.432  25.264  0.00  0.00    -0.086 C 
BRANCH   9  10
ATOM     10  NZ  LYS A   1      34.198  64.636  24.198  0.00  0.00    +0.380 N 
ATOM     11  HZ1 LYS A   1      34.778  65.463  24.445  0.00  0.00    -0.089 HD
ATOM     12  HZ2 LYS A   1      34.802  63.791  24.149  0.00  0.00    -0.089 HD
ATOM     13  HZ3 LYS A   1      33.743  64.793  23.276  0.00  0.00    -0.089 HD
ENDBRANCH   9  10
ENDBRANCH   8   9
ENDBRANCH   1   8
TORSDOF 7
REMARK  Name = ../refined-set-2016/3d52/3d52_pocket.pdb
REMARK  164 active torsions:
REMARK  status: ('A' for Active; 'I' for Inactive)
REMARK    1  A    between atoms: _1  and  _3
REMARK    2  A    between atoms: _14  and  _17
REMARK    3  A    between atoms: _17  and  _18
REMARK    4  A    between atoms: _25  and  _26
REMARK    5  A    between atoms: _33  and  _34
REMARK    6  A    between atoms: _39  and  _41
REMARK    7  A    between atoms: _41  and  _42
REMARK    8  A    between atoms: _44  and  _46
REMARK    9  A    between atoms: _46  and  _47
REMARK   10  A    between atoms: _46  and  _49
REMARK   11  A    between atoms: _49  and  _50
REMARK   12  A    between atoms: _60  and  _62
REMARK   13  A    between atoms: _62  and  _63
REMARK   14  A    between atoms: _62  and  _65
REMARK   15  A    between atoms: _65  and  _66
REMARK   16  A    between atoms: _69  and  _71
REMARK   17  A    between atoms: _71  and  _72
REMARK   18  A    between atoms: _71  and  _74
REMARK   19  A    between atoms: _74  and  _75
REMARK   20  A    between atoms: _75  and  _76
REMARK   21  A    between atoms: _81  and  _83
REMARK   22  A    between atoms: _83  and  _84
REMARK   23  A    between atoms: _83  and  _86
REMARK   24  A    between atoms: _86  and  _87
REMARK   25  A    between atoms: _92  and  _93
REMARK   26  A    between atoms: _95  and  _97
REMARK   27  A    between atoms: _97  and  _98
REMARK   28  A    between atoms: _97  and  _100
REMARK   29  A    between atoms: _100  and  _101
REMARK   30  A    between atoms: _104  and  _106
REMARK   31  A    between atoms: _106  and  _107
REMARK   32  A    between atoms: _106  and  _109
REMARK   33  A    between atoms: _109  and  _110
REMARK   34  A    between atoms: _110  and  _111
REMARK   35  A    between atoms: _113  and  _115
REMARK   36  A    between atoms: _115  and  _116
REMARK   37  A    between atoms: _115  and  _118
REMARK   38  A    between atoms: _118  and  _119
REMARK   39  A    between atoms: _122  and  _124
REMARK   40  A    between atoms: _124  and  _125
REMARK   41  A    between atoms: _124  and  _127
REMARK   42  A    between atoms: _127  and  _128
REMARK   43  A    between atoms: _128  and  _130
REMARK   44  A    between atoms: _130  and  ZN_440
REMARK   45  A    between atoms: _132  and  _133
REMARK   46  A    between atoms: _138  and  _140
REMARK   47  A    between atoms: _140  and  _141
REMARK   48  A    between atoms: _140  and  _143
REMARK   49  A    between atoms: _143  and  _144
REMARK   50  A    between atoms: _150  and  _152
REMARK   51  A    between atoms: _152  and  _153
REMARK   52  A    between atoms: _152  and  _155
REMARK   53  A    between atoms: _155  and  _156
REMARK   54  A    between atoms: _156  and  _157
REMARK   55  A    between atoms: _157  and  _158
REMARK   56  A    between atoms: _167  and  _169
REMARK   57  A    between atoms: _169  and  _170
REMARK   58  A    between atoms: _169  and  _172
REMARK   59  A    between atoms: _172  and  _173
REMARK   60  A    between atoms: _178  and  _179
REMARK   61  A    between atoms: _181  and  _183
REMARK   62  A    between atoms: _183  and  _184
REMARK   63  A    between atoms: _183  and  _186
REMARK   64  A    between atoms: _186  and  _187
REMARK   65  A    between atoms: _189  and  _191
REMARK   66  A    between atoms: _191  and  _192
REMARK   67  A    between atoms: _191  and  _194
REMARK   68  A    between atoms: _194  and  _195
REMARK   69  A    between atoms: _200  and  _201
REMARK   70  A    between atoms: _203  and  _205
REMARK   71  A    between atoms: _205  and  _206
REMARK   72  A    between atoms: _205  and  _208
REMARK   73  A    between atoms: _208  and  _209
REMARK   74  A    between atoms: _209  and  _210
REMARK   75  A    between atoms: _210  and  _211
REMARK   76  A    between atoms: _211  and  _212
REMARK   77  A    between atoms: _216  and  _218
REMARK   78  A    between atoms: _218  and  _219
REMARK   79  A    between atoms: _218  and  _221
REMARK   80  A    between atoms: _221  and  _222
REMARK   81  A    between atoms: _225  and  _227
REMARK   82  A    between atoms: _227  and  _228
REMARK   83  A    between atoms: _227  and  _230
REMARK   84  A    between atoms: _230  and  _231
REMARK   85  A    between atoms: _234  and  _236
REMARK   86  A    between atoms: _236  and  _237
REMARK   87  A    between atoms: _236  and  _239
REMARK   88  A    between atoms: _239  and  _240
REMARK   89  A    between atoms: _243  and  _245
REMARK   90  A    between atoms: _245  and  _246
REMARK   91  A    between atoms: _245  and  _248
REMARK   92  A    between atoms: _248  and  _249
REMARK   93  A    between atoms: _255  and  _257
REMARK   94  A    between atoms: _257  and  _258
REMARK   95  A    between atoms: _257  and  _260
REMARK   96  A    between atoms: _260  and  _261
REMARK   97  A    between atoms: _261  and  _262
REMARK   98  A    between atoms: _262  and  _263
REMARK   99  A    between atoms: _272  and  _274
REMARK  100  A    between atoms: _274  and  _275
REMARK  101  A    between atoms: _274  and  _277
REMARK  102  A    between atoms: _277  and  _278
REMARK  103  A    between atoms: _283  and  _284
REMARK  104  A    between atoms: _286  and  _288
REMARK  105  A    between atoms: _288  and  _289
REMARK  106  A    between atoms: _288  and  _291
REMARK  107  A    between atoms: _291  and  _292
REMARK  108  A    between atoms: _295  and  _297
REMARK  109  A    between atoms: _297  and  _298
REMARK  110  A    between atoms: _297  and  _300
REMARK  111  A    between atoms: _300  and  _301
REMARK  112  A    between atoms: _311  and  _313
REMARK  113  A    between atoms: _313  and  _314
REMARK  114  A    between atoms: _313  and  _316
REMARK  115  A    between atoms: _316  and  _317
REMARK  116  A    between atoms: _322  and  _324
REMARK  117  A    between atoms: _324  and  _325
REMARK  118  A    between atoms: _324  and  _327
REMARK  119  A    between atoms: _327  and  _328
REMARK  120  A    between atoms: _332  and  ZN_440
REMARK  121  A    between atoms: _333  and  _335
REMARK  122  A    between atoms: _335  and  _336
REMARK  123  A    between atoms: _335  and  _338
REMARK  124  A    between atoms: _338  and  _339
REMARK  125  A    between atoms: _342  and  _344
REMARK  126  A    between atoms: _344  and  _345
REMARK  127  A    between atoms: _347  and  _349
REMARK  128  A    between atoms: _349  and  _350
REMARK  129  A    between atoms: _349  and  _352
REMARK  130  A    between atoms: _352  and  _353
REMARK  131  A    between atoms: _356  and  _358
REMARK  132  A    between atoms: _358  and  _359
REMARK  133  A    between atoms: _358  and  _361
REMARK  134  A    between atoms: _361  and  _362
REMARK  135  A    between atoms: _365  and  _367
REMARK  136  A    between atoms: _367  and  _368
REMARK  137  A    between atoms: _371  and  _373
REMARK  138  A    between atoms: _373  and  _374
REMARK  139  A    between atoms: _373  and  _376
REMARK  140  A    between atoms: _376  and  _377
REMARK  141  A    between atoms: _382  and  _383
REMARK  142  A    between atoms: _385  and  _387
REMARK  143  A    between atoms: _387  and  _388
REMARK  144  A    between atoms: _387  and  _390
REMARK  145  A    between atoms: _390  and  _391
REMARK  146  A    between atoms: _394  and  _396
REMARK  147  A    between atoms: _396  and  _397
REMARK  148  A    between atoms: _396  and  _399
REMARK  149  A    between atoms: _399  and  _400
REMARK  150  A    between atoms: _400  and  _401
REMARK  151  A    between atoms: _404  and  _406
REMARK  152  A    between atoms: _406  and  _407
REMARK  153  A    between atoms: _406  and  _409
REMARK  154  A    between atoms: _409  and  _410
REMARK  155  A    between atoms: _410  and  _411
REMARK  156  A    between atoms: _411  and  _412
REMARK  157  A    between atoms: _421  and  _423
REMARK  158  A    between atoms: _423  and  _424
REMARK  159  A    between atoms: _426  and  _428
REMARK  160  A    between atoms: _428  and  _429
REMARK  161  A    between atoms: _428  and  _431
REMARK  162  A    between atoms: _431  and  _432
REMARK  163  A    between atoms: _435  and  _437
REMARK  164  A    between atoms: _437  and  _438
REMARK                            x       y       z     vdW  Elec       q    Type
REMARK                         _______ _______ _______ _____ _____    ______ ____
ROOT
ATOM      1  CA  LEU A   1      26.325  67.116  25.099  0.00  0.00    +0.133 C 
ENDROOT
BRANCH   1   2
ATOM      2  N   LEU A   1      27.087  67.946  26.032  0.00  0.00    -0.239 NA
ATOM      3  H   LEU A   1      27.632  67.501  26.798  0.00  0.00    +0.142 HD
ENDBRANCH   1   2
BRANCH   1   4
ATOM      4  C   LEU A   1      25.166  66.509  25.866  0.00  0.00    +0.224 C 
ATOM      5  O   LEU A   1      25.216  66.364  27.075  0.00  0.00    -0.287 OA
ENDBRANCH   1   4
BRANCH   1   6
ATOM      6  CB  LEU A   1      27.188  65.975  24.538  0.00  0.00    +0.025 C 
BRANCH   6   7
ATOM      7  CG  LEU A   1      28.557  66.377  23.979  0.00  0.00    +0.002 C 
ATOM      8  CD2 LEU A   1      29.309  65.111  23.474  0.00  0.00    +0.000 C 
ATOM      9  CD1 LEU A   1      28.417  67.403  22.845  0.00  0.00    +0.000 C 
ENDBRANCH   6   7
ENDBRANCH   1   6
TORSDOF 4
REMARK  Name = ../refined-set-2016/3d52/3d52_pocket.pdb
REMARK  164 active torsions:
REMARK  status: ('A' for Active; 'I' for Inactive)
REMARK    1  A    between atoms: _1  and  _3
REMARK    2  A    between atoms: _14  and  _17
REMARK    3  A    between atoms: _17  and  _18
REMARK    4  A    between atoms: _25  and  _26
REMARK    5  A    between atoms: _33  and  _34
REMARK    6  A    between atoms: _39  and  _41
REMARK    7  A    between atoms: _41  and  _42
REMARK    8  A    between atoms: _44  and  _46
REMARK    9  A    between atoms: _46  and  _47
REMARK   10  A    between atoms: _46  and  _49
REMARK   11  A    between atoms: _49  and  _50
REMARK   12  A    between atoms: _60  and  _62
REMARK   13  A    between atoms: _62  and  _63
REMARK   14  A    between atoms: _62  and  _65
REMARK   15  A    between atoms: _65  and  _66
REMARK   16  A    between atoms: _69  and  _71
REMARK   17  A    between atoms: _71  and  _72
REMARK   18  A    between atoms: _71  and  _74
REMARK   19  A    between atoms: _74  and  _75
REMARK   20  A    between atoms: _75  and  _76
REMARK   21  A    between atoms: _81  and  _83
REMARK   22  A    between atoms: _83  and  _84
REMARK   23  A    between atoms: _83  and  _86
REMARK   24  A    between atoms: _86  and  _87
REMARK   25  A    between atoms: _92  and  _93
REMARK   26  A    between atoms: _95  and  _97
REMARK   27  A    between atoms: _97  and  _98
REMARK   28  A    between atoms: _97  and  _100
REMARK   29  A    between atoms: _100  and  _101
REMARK   30  A    between atoms: _104  and  _106
REMARK   31  A    between atoms: _106  and  _107
REMARK   32  A    between atoms: _106  and  _109
REMARK   33  A    between atoms: _109  and  _110
REMARK   34  A    between atoms: _110  and  _111
REMARK   35  A    between atoms: _113  and  _115
REMARK   36  A    between atoms: _115  and  _116
REMARK   37  A    between atoms: _115  and  _118
REMARK   38  A    between atoms: _118  and  _119
REMARK   39  A    between atoms: _122  and  _124
REMARK   40  A    between atoms: _124  and  _125
REMARK   41  A    between atoms: _124  and  _127
REMARK   42  A    between atoms: _127  and  _128
REMARK   43  A    between atoms: _128  and  _130
REMARK   44  A    between atoms: _130  and  ZN_440
REMARK   45  A    between atoms: _132  and  _133
REMARK   46  A    between atoms: _138  and  _140
REMARK   47  A    between atoms: _140  and  _141
REMARK   48  A    between atoms: _140  and  _143
REMARK   49  A    between atoms: _143  and  _144
REMARK   50  A    between atoms: _150  and  _152
REMARK   51  A    between atoms: _152  and  _153
REMARK   52  A    between atoms: _152  and  _155
REMARK   53  A    between atoms: _155  and  _156
REMARK   54  A    between atoms: _156  and  _157
REMARK   55  A    between atoms: _157  and  _158
REMARK   56  A    between atoms: _167  and  _169
REMARK   57  A    between atoms: _169  and  _170
REMARK   58  A    between atoms: _169  and  _172
REMARK   59  A    between atoms: _172  and  _173
REMARK   60  A    between atoms: _178  and  _179
REMARK   61  A    between atoms: _181  and  _183
REMARK   62  A    between atoms: _183  and  _184
REMARK   63  A    between atoms: _183  and  _186
REMARK   64  A    between atoms: _186  and  _187
REMARK   65  A    between atoms: _189  and  _191
REMARK   66  A    between atoms: _191  and  _192
REMARK   67  A    between atoms: _191  and  _194
REMARK   68  A    between atoms: _194  and  _195
REMARK   69  A    between atoms: _200  and  _201
REMARK   70  A    between atoms: _203  and  _205
REMARK   71  A    between atoms: _205  and  _206
REMARK   72  A    between atoms: _205  and  _208
REMARK   73  A    between atoms: _208  and  _209
REMARK   74  A    between atoms: _209  and  _210
REMARK   75  A    between atoms: _210  and  _211
REMARK   76  A    between atoms: _211  and  _212
REMARK   77  A    between atoms: _216  and  _218
REMARK   78  A    between atoms: _218  and  _219
REMARK   79  A    between atoms: _218  and  _221
REMARK   80  A    between atoms: _221  and  _222
REMARK   81  A    between atoms: _225  and  _227
REMARK   82  A    between atoms: _227  and  _228
REMARK   83  A    between atoms: _227  and  _230
REMARK   84  A    between atoms: _230  and  _231
REMARK   85  A    between atoms: _234  and  _236
REMARK   86  A    between atoms: _236  and  _237
REMARK   87  A    between atoms: _236  and  _239
REMARK   88  A    between atoms: _239  and  _240
REMARK   89  A    between atoms: _243  and  _245
REMARK   90  A    between atoms: _245  and  _246
REMARK   91  A    between atoms: _245  and  _248
REMARK   92  A    between atoms: _248  and  _249
REMARK   93  A    between atoms: _255  and  _257
REMARK   94  A    between atoms: _257  and  _258
REMARK   95  A    between atoms: _257  and  _260
REMARK   96  A    between atoms: _260  and  _261
REMARK   97  A    between atoms: _261  and  _262
REMARK   98  A    between atoms: _262  and  _263
REMARK   99  A    between atoms: _272  and  _274
REMARK  100  A    between atoms: _274  and  _275
REMARK  101  A    between atoms: _274  and  _277
REMARK  102  A    between atoms: _277  and  _278
REMARK  103  A    between atoms: _283  and  _284
REMARK  104  A    between atoms: _286  and  _288
REMARK  105  A    between atoms: _288  and  _289
REMARK  106  A    between atoms: _288  and  _291
REMARK  107  A    between atoms: _291  and  _292
REMARK  108  A    between atoms: _295  and  _297
REMARK  109  A    between atoms: _297  and  _298
REMARK  110  A    between atoms: _297  and  _300
REMARK  111  A    between atoms: _300  and  _301
REMARK  112  A    between atoms: _311  and  _313
REMARK  113  A    between atoms: _313  and  _314
REMARK  114  A    between atoms: _313  and  _316
REMARK  115  A    between atoms: _316  and  _317
REMARK  116  A    between atoms: _322  and  _324
REMARK  117  A    between atoms: _324  and  _325
REMARK  118  A    between atoms: _324  and  _327
REMARK  119  A    between atoms: _327  and  _328
REMARK  120  A    between atoms: _332  and  ZN_440
REMARK  121  A    between atoms: _333  and  _335
REMARK  122  A    between atoms: _335  and  _336
REMARK  123  A    between atoms: _335  and  _338
REMARK  124  A    between atoms: _338  and  _339
REMARK  125  A    between atoms: _342  and  _344
REMARK  126  A    between atoms: _344  and  _345
REMARK  127  A    between atoms: _347  and  _349
REMARK  128  A    between atoms: _349  and  _350
REMARK  129  A    between atoms: _349  and  _352
REMARK  130  A    between atoms: _352  and  _353
REMARK  131  A    between atoms: _356  and  _358
REMARK  132  A    between atoms: _358  and  _359
REMARK  133  A    between atoms: _358  and  _361
REMARK  134  A    between atoms: _361  and  _362
REMARK  135  A    between atoms: _365  and  _367
REMARK  136  A    between atoms: _367  and  _368
REMARK  137  A    between atoms: _371  and  _373
REMARK  138  A    between atoms: _373  and  _374
REMARK  139  A    between atoms: _373  and  _376
REMARK  140  A    between atoms: _376  and  _377
REMARK  141  A    between atoms: _382  and  _383
REMARK  142  A    between atoms: _385  and  _387
REMARK  143  A    between atoms: _387  and  _388
REMARK  144  A    between atoms: _387  and  _390
REMARK  145  A    between atoms: _390  and  _391
REMARK  146  A    between atoms: _394  and  _396
REMARK  147  A    between atoms: _396  and  _397
REMARK  148  A    between atoms: _396  and  _399
REMARK  149  A    between atoms: _399  and  _400
REMARK  150  A    between atoms: _400  and  _401
REMARK  151  A    between atoms: _404  and  _406
REMARK  152  A    between atoms: _406  and  _407
REMARK  153  A    between atoms: _406  and  _409
REMARK  154  A    between atoms: _409  and  _410
REMARK  155  A    between atoms: _410  and  _411
REMARK  156  A    between atoms: _411  and  _412
REMARK  157  A    between atoms: _421  and  _423
REMARK  158  A    between atoms: _423  and  _424
REMARK  159  A    between atoms: _426  and  _428
REMARK  160  A    between atoms: _428  and  _429
REMARK  161  A    between atoms: _428  and  _431
REMARK  162  A    between atoms: _431  and  _432
REMARK  163  A    between atoms: _435  and  _437
REMARK  164  A    between atoms: _437  and  _438
REMARK                            x       y       z     vdW  Elec       q    Type
REMARK                         _______ _______ _______ _____ _____    ______ ____
ROOT
ATOM      1  CA  PHE A   3      36.734  63.953  17.895  0.00  0.00    +0.153 C 
ENDROOT
BRANCH   1   4
ATOM      2  C   ASP A   2      34.446  63.468  17.146  0.00  0.00    +0.241 C 
ATOM      3  O   ASP A   2      33.932  63.937  18.180  0.00  0.00    -0.273 OA
ATOM      4  N   PHE A   3      35.776  63.400  16.937  0.00  0.00    -0.297 N 
ATOM      5  H   PHE A   3      36.130  62.943  16.073  0.00  0.00    +0.150 HD
BRANCH   2   6
ATOM      6  CA  ASP A   2      33.571  62.935  16.024  0.00  0.00    +0.160 C 
BRANCH   6   9
ATOM      7  C   ASP A   1      32.960  60.822  17.013  0.00  0.00    +0.239 C 
ATOM      8  O   ASP A   1      34.150  60.508  17.160  0.00  0.00    -0.274 OA
ATOM      9  N   ASP A   2      32.558  61.986  16.510  0.00  0.00    -0.297 N 
ATOM     10  H   ASP A   2      31.546  62.221  16.461  0.00  0.00    +0.150 HD
BRANCH   7  11
ATOM     11  CA  ASP A   1      31.819  59.845  17.338  0.00  0.00    +0.156 C 
BRANCH  11  12
ATOM     12  N   ASP A   1      32.458  58.742  18.064  0.00  0.00    -0.238 NA
ATOM     13  H   ASP A   1      33.460  58.835  18.328  0.00  0.00    +0.142 HD
ENDBRANCH  11  12
BRANCH  11  14
ATOM     14  CB  ASP A   1      30.792  60.500  18.294  0.00  0.00    +0.140 C 
BRANCH  14  15
ATOM     15  CG  ASP A   1      29.702  61.327  17.612  0.00  0.00    +0.367 C 
ATOM     16  OD2 ASP A   1      28.666  61.544  18.310  0.00  0.00    -0.246 OA
ATOM     17  OD1 ASP A   1      29.819  61.738  16.450  0.00  0.00    -0.246 OA
ENDBRANCH  14  15
ENDBRANCH  11  14
ENDBRANCH   7  11
ENDBRANCH   6   9
BRANCH   6  18
ATOM     18  CB  ASP A   2      32.896  64.115  15.370  0.00  0.00    +0.143 C 
BRANCH  18  19
ATOM     19  CG  ASP A   2      32.282  63.797  14.041  0.00  0.00    +0.367 C 
ATOM     20  OD2 ASP A   2      32.164  62.639  13.661  0.00  0.00    -0.246 OA
ATOM     21  OD1 ASP A   2      31.880  64.793  13.410  0.00  0.00    -0.246 OA
ENDBRANCH  18  19
ENDBRANCH   6  18
ENDBRANCH   2   6
ENDBRANCH   1   4
BRANCH   1  22
ATOM     22  C   PHE A   3      36.447  63.537  19.350  0.00  0.00    +0.241 C 
ATOM     23  O   PHE A   3      36.646  64.307  20.313  0.00  0.00    -0.273 OA
ATOM     24  N   ARG A   4      36.037  62.278  19.476  0.00  0.00    -0.298 N 
ATOM     25  H   ARG A   4      35.871  61.696  18.631  0.00  0.00    +0.150 HD
BRANCH  24  26
ATOM     26  CA  ARG A   4      35.817  61.708  20.829  0.00  0.00    +0.137 C 
BRANCH  26  27
ATOM     27  C   ARG A   4      37.110  61.252  21.438  0.00  0.00    +0.227 C 
ATOM     28  O   ARG A   4      38.174  61.159  20.792  0.00  0.00    -0.286 OA
ENDBRANCH  26  27
BRANCH  26  29
ATOM     29  CB  ARG A   4      34.834  60.557  20.804  0.00  0.00    +0.031 C 
BRANCH  29  30
ATOM     30  CG  ARG A   4      33.385  61.002  20.509  0.00  0.00    +0.045 C 
BRANCH  30  31
ATOM     31  CD  ARG A   4      32.901  61.963  21.620  0.00  0.00    +0.174 C 
BRANCH  31  32
ATOM     32  NE  ARG A   4      31.443  62.214  21.586  0.00  0.00    -0.265 N 
ATOM     33  CZ  ARG A   4      30.517  61.477  22.187  0.00  0.00    +0.342 C 
ATOM     34  NH2 ARG A   4      30.855  60.372  22.871  0.00  0.00    -0.292 N 
ATOM     35 HH21 ARG A   4      30.119  59.804  23.337  0.00  0.00    +0.255 HD
ATOM     36 HH22 ARG A   4      31.852  60.085  22.935  0.00  0.00    +0.255 HD
ATOM     37  NH1 ARG A   4      29.241  61.856  22.083  0.00  0.00    -0.292 N 
ATOM     38 HH11 ARG A   4      28.494  61.298  22.543  0.00  0.00    +0.255 HD
ATOM     39 HH12 ARG A   4      28.994  62.709  21.542  0.00  0.00    +0.255 HD
ATOM     40  HE  ARG A   4      31.116  63.039  21.044  0.00  0.00    +0.259 HD
ENDBRANCH  31  32
ENDBRANCH  30  31
ENDBRANCH  29  30
ENDBRANCH  26  29
ENDBRANCH  24  26
ENDBRANCH   1  22
BRANCH   1  41
ATOM     41  CB  PHE A   3      36.860  65.490  17.747  0.00  0.00    +0.055 C 
BRANCH  41  42
ATOM     42  CG  PHE A   3      37.399  65.922  16.407  0.00  0.00    -0.020 A 
ATOM     43  CD2 PHE A   3      38.788  65.891  16.176  0.00  0.00    -0.004 A 
ATOM     44  CE2 PHE A   3      39.294  66.257  14.938  0.00  0.00    -0.000 A 
ATOM     45  CZ  PHE A   3      38.453  66.675  13.904  0.00  0.00    -0.000 A 
ATOM     46  CE1 PHE A   3      37.053  66.699  14.115  0.00  0.00    -0.000 A 
ATOM     47  CD1 PHE A   3      36.539  66.301  15.367  0.00  0.00    -0.004 A 
ENDBRANCH  41  42
ENDBRANCH   1  41
TORSDOF 18
REMARK  Name = ../refined-set-2016/3d52/3d52_pocket.pdb
REMARK  164 active torsions:
REMARK  status: ('A' for Active; 'I' for Inactive)
REMARK    1  A    between atoms: _1  and  _3
REMARK    2  A    between atoms: _14  and  _17
REMARK    3  A    between atoms: _17  and  _18
REMARK    4  A    between atoms: _25  and  _26
REMARK    5  A    between atoms: _33  and  _34
REMARK    6  A    between atoms: _39  and  _41
REMARK    7  A    between atoms: _41  and  _42
REMARK    8  A    between atoms: _44  and  _46
REMARK    9  A    between atoms: _46  and  _47
REMARK   10  A    between atoms: _46  and  _49
REMARK   11  A    between atoms: _49  and  _50
REMARK   12  A    between atoms: _60  and  _62
REMARK   13  A    between atoms: _62  and  _63
REMARK   14  A    between atoms: _62  and  _65
REMARK   15  A    between atoms: _65  and  _66
REMARK   16  A    between atoms: _69  and  _71
REMARK   17  A    between atoms: _71  and  _72
REMARK   18  A    between atoms: _71  and  _74
REMARK   19  A    between atoms: _74  and  _75
REMARK   20  A    between atoms: _75  and  _76
REMARK   21  A    between atoms: _81  and  _83
REMARK   22  A    between atoms: _83  and  _84
REMARK   23  A    between atoms: _83  and  _86
REMARK   24  A    between atoms: _86  and  _87
REMARK   25  A    between atoms: _92  and  _93
REMARK   26  A    between atoms: _95  and  _97
REMARK   27  A    between atoms: _97  and  _98
REMARK   28  A    between atoms: _97  and  _100
REMARK   29  A    between atoms: _100  and  _101
REMARK   30  A    between atoms: _104  and  _106
REMARK   31  A    between atoms: _106  and  _107
REMARK   32  A    between atoms: _106  and  _109
REMARK   33  A    between atoms: _109  and  _110
REMARK   34  A    between atoms: _110  and  _111
REMARK   35  A    between atoms: _113  and  _115
REMARK   36  A    between atoms: _115  and  _116
REMARK   37  A    between atoms: _115  and  _118
REMARK   38  A    between atoms: _118  and  _119
REMARK   39  A    between atoms: _122  and  _124
REMARK   40  A    between atoms: _124  and  _125
REMARK   41  A    between atoms: _124  and  _127
REMARK   42  A    between atoms: _127  and  _128
REMARK   43  A    between atoms: _128  and  _130
REMARK   44  A    between atoms: _130  and  ZN_440
REMARK   45  A    between atoms: _132  and  _133
REMARK   46  A    between atoms: _138  and  _140
REMARK   47  A    between atoms: _140  and  _141
REMARK   48  A    between atoms: _140  and  _143
REMARK   49  A    between atoms: _143  and  _144
REMARK   50  A    between atoms: _150  and  _152
REMARK   51  A    between atoms: _152  and  _153
REMARK   52  A    between atoms: _152  and  _155
REMARK   53  A    between atoms: _155  and  _156
REMARK   54  A    between atoms: _156  and  _157
REMARK   55  A    between atoms: _157  and  _158
REMARK   56  A    between atoms: _167  and  _169
REMARK   57  A    between atoms: _169  and  _170
REMARK   58  A    between atoms: _169  and  _172
REMARK   59  A    between atoms: _172  and  _173
REMARK   60  A    between atoms: _178  and  _179
REMARK   61  A    between atoms: _181  and  _183
REMARK   62  A    between atoms: _183  and  _184
REMARK   63  A    between atoms: _183  and  _186
REMARK   64  A    between atoms: _186  and  _187
REMARK   65  A    between atoms: _189  and  _191
REMARK   66  A    between atoms: _191  and  _192
REMARK   67  A    between atoms: _191  and  _194
REMARK   68  A    between atoms: _194  and  _195
REMARK   69  A    between atoms: _200  and  _201
REMARK   70  A    between atoms: _203  and  _205
REMARK   71  A    between atoms: _205  and  _206
REMARK   72  A    between atoms: _205  and  _208
REMARK   73  A    between atoms: _208  and  _209
REMARK   74  A    between atoms: _209  and  _210
REMARK   75  A    between atoms: _210  and  _211
REMARK   76  A    between atoms: _211  and  _212
REMARK   77  A    between atoms: _216  and  _218
REMARK   78  A    between atoms: _218  and  _219
REMARK   79  A    between atoms: _218  and  _221
REMARK   80  A    between atoms: _221  and  _222
REMARK   81  A    between atoms: _225  and  _227
REMARK   82  A    between atoms: _227  and  _228
REMARK   83  A    between atoms: _227  and  _230
REMARK   84  A    between atoms: _230  and  _231
REMARK   85  A    between atoms: _234  and  _236
REMARK   86  A    between atoms: _236  and  _237
REMARK   87  A    between atoms: _236  and  _239
REMARK   88  A    between atoms: _239  and  _240
REMARK   89  A    between atoms: _243  and  _245
REMARK   90  A    between atoms: _245  and  _246
REMARK   91  A    between atoms: _245  and  _248
REMARK   92  A    between atoms: _248  and  _249
REMARK   93  A    between atoms: _255  and  _257
REMARK   94  A    between atoms: _257  and  _258
REMARK   95  A    between atoms: _257  and  _260
REMARK   96  A    between atoms: _260  and  _261
REMARK   97  A    between atoms: _261  and  _262
REMARK   98  A    between atoms: _262  and  _263
REMARK   99  A    between atoms: _272  and  _274
REMARK  100  A    between atoms: _274  and  _275
REMARK  101  A    between atoms: _274  and  _277
REMARK  102  A    between atoms: _277  and  _278
REMARK  103  A    between atoms: _283  and  _284
REMARK  104  A    between atoms: _286  and  _288
REMARK  105  A    between atoms: _288  and  _289
REMARK  106  A    between atoms: _288  and  _291
REMARK  107  A    between atoms: _291  and  _292
REMARK  108  A    between atoms: _295  and  _297
REMARK  109  A    between atoms: _297  and  _298
REMARK  110  A    between atoms: _297  and  _300
REMARK  111  A    between atoms: _300  and  _301
REMARK  112  A    between atoms: _311  and  _313
REMARK  113  A    between atoms: _313  and  _314
REMARK  114  A    between atoms: _313  and  _316
REMARK  115  A    between atoms: _316  and  _317
REMARK  116  A    between atoms: _322  and  _324
REMARK  117  A    between atoms: _324  and  _325
REMARK  118  A    between atoms: _324  and  _327
REMARK  119  A    between atoms: _327  and  _328
REMARK  120  A    between atoms: _332  and  ZN_440
REMARK  121  A    between atoms: _333  and  _335
REMARK  122  A    between atoms: _335  and  _336
REMARK  123  A    between atoms: _335  and  _338
REMARK  124  A    between atoms: _338  and  _339
REMARK  125  A    between atoms: _342  and  _344
REMARK  126  A    between atoms: _344  and  _345
REMARK  127  A    between atoms: _347  and  _349
REMARK  128  A    between atoms: _349  and  _350
REMARK  129  A    between atoms: _349  and  _352
REMARK  130  A    between atoms: _352  and  _353
REMARK  131  A    between atoms: _356  and  _358
REMARK  132  A    between atoms: _358  and  _359
REMARK  133  A    between atoms: _358  and  _361
REMARK  134  A    between atoms: _361  and  _362
REMARK  135  A    between atoms: _365  and  _367
REMARK  136  A    between atoms: _367  and  _368
REMARK  137  A    between atoms: _371  and  _373
REMARK  138  A    between atoms: _373  and  _374
REMARK  139  A    between atoms: _373  and  _376
REMARK  140  A    between atoms: _376  and  _377
REMARK  141  A    between atoms: _382  and  _383
REMARK  142  A    between atoms: _385  and  _387
REMARK  143  A    between atoms: _387  and  _388
REMARK  144  A    between atoms: _387  and  _390
REMARK  145  A    between atoms: _390  and  _391
REMARK  146  A    between atoms: _394  and  _396
REMARK  147  A    between atoms: _396  and  _397
REMARK  148  A    between atoms: _396  and  _399
REMARK  149  A    between atoms: _399  and  _400
REMARK  150  A    between atoms: _400  and  _401
REMARK  151  A    between atoms: _404  and  _406
REMARK  152  A    between atoms: _406  and  _407
REMARK  153  A    between atoms: _406  and  _409
REMARK  154  A    between atoms: _409  and  _410
REMARK  155  A    between atoms: _410  and  _411
REMARK  156  A    between atoms: _411  and  _412
REMARK  157  A    between atoms: _421  and  _423
REMARK  158  A    between atoms: _423  and  _424
REMARK  159  A    between atoms: _426  and  _428
REMARK  160  A    between atoms: _428  and  _429
REMARK  161  A    between atoms: _428  and  _431
REMARK  162  A    between atoms: _431  and  _432
REMARK  163  A    between atoms: _435  and  _437
REMARK  164  A    between atoms: _437  and  _438
REMARK                            x       y       z     vdW  Elec       q    Type
REMARK                         _______ _______ _______ _____ _____    ______ ____
ROOT
ATOM      1  CG  TYR A   1      24.803  58.667   1.195  0.00  0.00    -0.020 A 
ATOM      2  CD2 TYR A   1      24.375  57.610   1.960  0.00  0.00    -0.001 A 
ATOM      3  CE2 TYR A   1      24.230  57.733   3.311  0.00  0.00    +0.036 A 
ATOM      4  CZ  TYR A   1      24.507  58.909   3.934  0.00  0.00    +0.134 A 
ATOM      5  CE1 TYR A   1      24.952  59.984   3.206  0.00  0.00    +0.036 A 
ATOM      6  CD1 TYR A   1      25.093  59.861   1.838  0.00  0.00    -0.001 A 
ENDROOT
BRANCH   4   7
ATOM      7  OH  TYR A   1      24.384  59.015   5.272  0.00  0.00    -0.506 OA
ATOM      8  HH  TYR A   1      24.054  58.158   5.641  0.00  0.00    +0.292 HD
ENDBRANCH   4   7
BRANCH   1   9
ATOM      9  CB  TYR A   1      25.009  58.523  -0.287  0.00  0.00    +0.051 C 
BRANCH   9  10
ATOM     10  CA  TYR A   1      23.807  58.295  -1.172  0.00  0.00    +0.137 C 
BRANCH  10  11
ATOM     11  N   TYR A   1      24.268  58.429  -2.535  0.00  0.00    -0.239 NA
ATOM     12  H   TYR A   1      25.213  58.821  -2.720  0.00  0.00    +0.142 HD
ENDBRANCH  10  11
BRANCH  10  13
ATOM     13  C   TYR A   1      22.682  59.280  -0.816  0.00  0.00    +0.224 C 
ATOM     14  O   TYR A   1      22.734  60.437  -1.183  0.00  0.00    -0.287 OA
ENDBRANCH  10  13
ENDBRANCH   9  10
ENDBRANCH   1   9
TORSDOF 5
REMARK  Name = ../refined-set-2016/3d52/3d52_pocket.pdb
REMARK  164 active torsions:
REMARK  status: ('A' for Active; 'I' for Inactive)
REMARK    1  A    between atoms: _1  and  _3
REMARK    2  A    between atoms: _14  and  _17
REMARK    3  A    between atoms: _17  and  _18
REMARK    4  A    between atoms: _25  and  _26
REMARK    5  A    between atoms: _33  and  _34
REMARK    6  A    between atoms: _39  and  _41
REMARK    7  A    between atoms: _41  and  _42
REMARK    8  A    between atoms: _44  and  _46
REMARK    9  A    between atoms: _46  and  _47
REMARK   10  A    between atoms: _46  and  _49
REMARK   11  A    between atoms: _49  and  _50
REMARK   12  A    between atoms: _60  and  _62
REMARK   13  A    between atoms: _62  and  _63
REMARK   14  A    between atoms: _62  and  _65
REMARK   15  A    between atoms: _65  and  _66
REMARK   16  A    between atoms: _69  and  _71
REMARK   17  A    between atoms: _71  and  _72
REMARK   18  A    between atoms: _71  and  _74
REMARK   19  A    between atoms: _74  and  _75
REMARK   20  A    between atoms: _75  and  _76
REMARK   21  A    between atoms: _81  and  _83
REMARK   22  A    between atoms: _83  and  _84
REMARK   23  A    between atoms: _83  and  _86
REMARK   24  A    between atoms: _86  and  _87
REMARK   25  A    between atoms: _92  and  _93
REMARK   26  A    between atoms: _95  and  _97
REMARK   27  A    between atoms: _97  and  _98
REMARK   28  A    between atoms: _97  and  _100
REMARK   29  A    between atoms: _100  and  _101
REMARK   30  A    between atoms: _104  and  _106
REMARK   31  A    between atoms: _106  and  _107
REMARK   32  A    between atoms: _106  and  _109
REMARK   33  A    between atoms: _109  and  _110
REMARK   34  A    between atoms: _110  and  _111
REMARK   35  A    between atoms: _113  and  _115
REMARK   36  A    between atoms: _115  and  _116
REMARK   37  A    between atoms: _115  and  _118
REMARK   38  A    between atoms: _118  and  _119
REMARK   39  A    between atoms: _122  and  _124
REMARK   40  A    between atoms: _124  and  _125
REMARK   41  A    between atoms: _124  and  _127
REMARK   42  A    between atoms: _127  and  _128
REMARK   43  A    between atoms: _128  and  _130
REMARK   44  A    between atoms: _130  and  ZN_440
REMARK   45  A    between atoms: _132  and  _133
REMARK   46  A    between atoms: _138  and  _140
REMARK   47  A    between atoms: _140  and  _141
REMARK   48  A    between atoms: _140  and  _143
REMARK   49  A    between atoms: _143  and  _144
REMARK   50  A    between atoms: _150  and  _152
REMARK   51  A    between atoms: _152  and  _153
REMARK   52  A    between atoms: _152  and  _155
REMARK   53  A    between atoms: _155  and  _156
REMARK   54  A    between atoms: _156  and  _157
REMARK   55  A    between atoms: _157  and  _158
REMARK   56  A    between atoms: _167  and  _169
REMARK   57  A    between atoms: _169  and  _170
REMARK   58  A    between atoms: _169  and  _172
REMARK   59  A    between atoms: _172  and  _173
REMARK   60  A    between atoms: _178  and  _179
REMARK   61  A    between atoms: _181  and  _183
REMARK   62  A    between atoms: _183  and  _184
REMARK   63  A    between atoms: _183  and  _186
REMARK   64  A    between atoms: _186  and  _187
REMARK   65  A    between atoms: _189  and  _191
REMARK   66  A    between atoms: _191  and  _192
REMARK   67  A    between atoms: _191  and  _194
REMARK   68  A    between atoms: _194  and  _195
REMARK   69  A    between atoms: _200  and  _201
REMARK   70  A    between atoms: _203  and  _205
REMARK   71  A    between atoms: _205  and  _206
REMARK   72  A    between atoms: _205  and  _208
REMARK   73  A    between atoms: _208  and  _209
REMARK   74  A    between atoms: _209  and  _210
REMARK   75  A    between atoms: _210  and  _211
REMARK   76  A    between atoms: _211  and  _212
REMARK   77  A    between atoms: _216  and  _218
REMARK   78  A    between atoms: _218  and  _219
REMARK   79  A    between atoms: _218  and  _221
REMARK   80  A    between atoms: _221  and  _222
REMARK   81  A    between atoms: _225  and  _227
REMARK   82  A    between atoms: _227  and  _228
REMARK   83  A    between atoms: _227  and  _230
REMARK   84  A    between atoms: _230  and  _231
REMARK   85  A    between atoms: _234  and  _236
REMARK   86  A    between atoms: _236  and  _237
REMARK   87  A    between atoms: _236  and  _239
REMARK   88  A    between atoms: _239  and  _240
REMARK   89  A    between atoms: _243  and  _245
REMARK   90  A    between atoms: _245  and  _246
REMARK   91  A    between atoms: _245  and  _248
REMARK   92  A    between atoms: _248  and  _249
REMARK   93  A    between atoms: _255  and  _257
REMARK   94  A    between atoms: _257  and  _258
REMARK   95  A    between atoms: _257  and  _260
REMARK   96  A    between atoms: _260  and  _261
REMARK   97  A    between atoms: _261  and  _262
REMARK   98  A    between atoms: _262  and  _263
REMARK   99  A    between atoms: _272  and  _274
REMARK  100  A    between atoms: _274  and  _275
REMARK  101  A    between atoms: _274  and  _277
REMARK  102  A    between atoms: _277  and  _278
REMARK  103  A    between atoms: _283  and  _284
REMARK  104  A    between atoms: _286  and  _288
REMARK  105  A    between atoms: _288  and  _289
REMARK  106  A    between atoms: _288  and  _291
REMARK  107  A    between atoms: _291  and  _292
REMARK  108  A    between atoms: _295  and  _297
REMARK  109  A    between atoms: _297  and  _298
REMARK  110  A    between atoms: _297  and  _300
REMARK  111  A    between atoms: _300  and  _301
REMARK  112  A    between atoms: _311  and  _313
REMARK  113  A    between atoms: _313  and  _314
REMARK  114  A    between atoms: _313  and  _316
REMARK  115  A    between atoms: _316  and  _317
REMARK  116  A    between atoms: _322  and  _324
REMARK  117  A    between atoms: _324  and  _325
REMARK  118  A    between atoms: _324  and  _327
REMARK  119  A    between atoms: _327  and  _328
REMARK  120  A    between atoms: _332  and  ZN_440
REMARK  121  A    between atoms: _333  and  _335
REMARK  122  A    between atoms: _335  and  _336
REMARK  123  A    between atoms: _335  and  _338
REMARK  124  A    between atoms: _338  and  _339
REMARK  125  A    between atoms: _342  and  _344
REMARK  126  A    between atoms: _344  and  _345
REMARK  127  A    between atoms: _347  and  _349
REMARK  128  A    between atoms: _349  and  _350
REMARK  129  A    between atoms: _349  and  _352
REMARK  130  A    between atoms: _352  and  _353
REMARK  131  A    between atoms: _356  and  _358
REMARK  132  A    between atoms: _358  and  _359
REMARK  133  A    between atoms: _358  and  _361
REMARK  134  A    between atoms: _361  and  _362
REMARK  135  A    between atoms: _365  and  _367
REMARK  136  A    between atoms: _367  and  _368
REMARK  137  A    between atoms: _371  and  _373
REMARK  138  A    between atoms: _373  and  _374
REMARK  139  A    between atoms: _373  and  _376
REMARK  140  A    between atoms: _376  and  _377
REMARK  141  A    between atoms: _382  and  _383
REMARK  142  A    between atoms: _385  and  _387
REMARK  143  A    between atoms: _387  and  _388
REMARK  144  A    between atoms: _387  and  _390
REMARK  145  A    between atoms: _390  and  _391
REMARK  146  A    between atoms: _394  and  _396
REMARK  147  A    between atoms: _396  and  _397
REMARK  148  A    between atoms: _396  and  _399
REMARK  149  A    between atoms: _399  and  _400
REMARK  150  A    between atoms: _400  and  _401
REMARK  151  A    between atoms: _404  and  _406
REMARK  152  A    between atoms: _406  and  _407
REMARK  153  A    between atoms: _406  and  _409
REMARK  154  A    between atoms: _409  and  _410
REMARK  155  A    between atoms: _410  and  _411
REMARK  156  A    between atoms: _411  and  _412
REMARK  157  A    between atoms: _421  and  _423
REMARK  158  A    between atoms: _423  and  _424
REMARK  159  A    between atoms: _426  and  _428
REMARK  160  A    between atoms: _428  and  _429
REMARK  161  A    between atoms: _428  and  _431
REMARK  162  A    between atoms: _431  and  _432
REMARK  163  A    between atoms: _435  and  _437
REMARK  164  A    between atoms: _437  and  _438
REMARK                            x       y       z     vdW  Elec       q    Type
REMARK                         _______ _______ _______ _____ _____    ______ ____
ROOT
ATOM      1  CA  ASP A   1      20.708  59.757   4.459  0.00  0.00    +0.144 C 
ENDROOT
BRANCH   1   2
ATOM      2  N   ASP A   1      20.767  60.115   3.024  0.00  0.00    -0.239 NA
ATOM      3  H   ASP A   1      20.856  61.113   2.745  0.00  0.00    +0.142 HD
ENDBRANCH   1   2
BRANCH   1   4
ATOM      4  C   ASP A   1      19.275  59.780   4.981  0.00  0.00    +0.225 C 
ATOM      5  O   ASP A   1      18.950  59.126   5.950  0.00  0.00    -0.287 OA
ENDBRANCH   1   4
BRANCH   1   6
ATOM      6  CB  ASP A   1      21.636  60.608   5.350  0.00  0.00    +0.139 C 
BRANCH   6   7
ATOM      7  CG  ASP A   1      21.402  62.138   5.244  0.00  0.00    +0.367 C 
ATOM      8  OD2 ASP A   1      21.875  62.823   6.192  0.00  0.00    -0.246 OA
ATOM      9  OD1 ASP A   1      20.768  62.613   4.256  0.00  0.00    -0.246 OA
ENDBRANCH   6   7
ENDBRANCH   1   6
TORSDOF 4
REMARK  Name = ../refined-set-2016/3d52/3d52_pocket.pdb
REMARK  164 active torsions:
REMARK  status: ('A' for Active; 'I' for Inactive)
REMARK    1  A    between atoms: _1  and  _3
REMARK    2  A    between atoms: _14  and  _17
REMARK    3  A    between atoms: _17  and  _18
REMARK    4  A    between atoms: _25  and  _26
REMARK    5  A    between atoms: _33  and  _34
REMARK    6  A    between atoms: _39  and  _41
REMARK    7  A    between atoms: _41  and  _42
REMARK    8  A    between atoms: _44  and  _46
REMARK    9  A    between atoms: _46  and  _47
REMARK   10  A    between atoms: _46  and  _49
REMARK   11  A    between atoms: _49  and  _50
REMARK   12  A    between atoms: _60  and  _62
REMARK   13  A    between atoms: _62  and  _63
REMARK   14  A    between atoms: _62  and  _65
REMARK   15  A    between atoms: _65  and  _66
REMARK   16  A    between atoms: _69  and  _71
REMARK   17  A    between atoms: _71  and  _72
REMARK   18  A    between atoms: _71  and  _74
REMARK   19  A    between atoms: _74  and  _75
REMARK   20  A    between atoms: _75  and  _76
REMARK   21  A    between atoms: _81  and  _83
REMARK   22  A    between atoms: _83  and  _84
REMARK   23  A    between atoms: _83  and  _86
REMARK   24  A    between atoms: _86  and  _87
REMARK   25  A    between atoms: _92  and  _93
REMARK   26  A    between atoms: _95  and  _97
REMARK   27  A    between atoms: _97  and  _98
REMARK   28  A    between atoms: _97  and  _100
REMARK   29  A    between atoms: _100  and  _101
REMARK   30  A    between atoms: _104  and  _106
REMARK   31  A    between atoms: _106  and  _107
REMARK   32  A    between atoms: _106  and  _109
REMARK   33  A    between atoms: _109  and  _110
REMARK   34  A    between atoms: _110  and  _111
REMARK   35  A    between atoms: _113  and  _115
REMARK   36  A    between atoms: _115  and  _116
REMARK   37  A    between atoms: _115  and  _118
REMARK   38  A    between atoms: _118  and  _119
REMARK   39  A    between atoms: _122  and  _124
REMARK   40  A    between atoms: _124  and  _125
REMARK   41  A    between atoms: _124  and  _127
REMARK   42  A    between atoms: _127  and  _128
REMARK   43  A    between atoms: _128  and  _130
REMARK   44  A    between atoms: _130  and  ZN_440
REMARK   45  A    between atoms: _132  and  _133
REMARK   46  A    between atoms: _138  and  _140
REMARK   47  A    between atoms: _140  and  _141
REMARK   48  A    between atoms: _140  and  _143
REMARK   49  A    between atoms: _143  and  _144
REMARK   50  A    between atoms: _150  and  _152
REMARK   51  A    between atoms: _152  and  _153
REMARK   52  A    between atoms: _152  and  _155
REMARK   53  A    between atoms: _155  and  _156
REMARK   54  A    between atoms: _156  and  _157
REMARK   55  A    between atoms: _157  and  _158
REMARK   56  A    between atoms: _167  and  _169
REMARK   57  A    between atoms: _169  and  _170
REMARK   58  A    between atoms: _169  and  _172
REMARK   59  A    between atoms: _172  and  _173
REMARK   60  A    between atoms: _178  and  _179
REMARK   61  A    between atoms: _181  and  _183
REMARK   62  A    between atoms: _183  and  _184
REMARK   63  A    between atoms: _183  and  _186
REMARK   64  A    between atoms: _186  and  _187
REMARK   65  A    between atoms: _189  and  _191
REMARK   66  A    between atoms: _191  and  _192
REMARK   67  A    between atoms: _191  and  _194
REMARK   68  A    between atoms: _194  and  _195
REMARK   69  A    between atoms: _200  and  _201
REMARK   70  A    between atoms: _203  and  _205
REMARK   71  A    between atoms: _205  and  _206
REMARK   72  A    between atoms: _205  and  _208
REMARK   73  A    between atoms: _208  and  _209
REMARK   74  A    between atoms: _209  and  _210
REMARK   75  A    between atoms: _210  and  _211
REMARK   76  A    between atoms: _211  and  _212
REMARK   77  A    between atoms: _216  and  _218
REMARK   78  A    between atoms: _218  and  _219
REMARK   79  A    between atoms: _218  and  _221
REMARK   80  A    between atoms: _221  and  _222
REMARK   81  A    between atoms: _225  and  _227
REMARK   82  A    between atoms: _227  and  _228
REMARK   83  A    between atoms: _227  and  _230
REMARK   84  A    between atoms: _230  and  _231
REMARK   85  A    between atoms: _234  and  _236
REMARK   86  A    between atoms: _236  and  _237
REMARK   87  A    between atoms: _236  and  _239
REMARK   88  A    between atoms: _239  and  _240
REMARK   89  A    between atoms: _243  and  _245
REMARK   90  A    between atoms: _245  and  _246
REMARK   91  A    between atoms: _245  and  _248
REMARK   92  A    between atoms: _248  and  _249
REMARK   93  A    between atoms: _255  and  _257
REMARK   94  A    between atoms: _257  and  _258
REMARK   95  A    between atoms: _257  and  _260
REMARK   96  A    between atoms: _260  and  _261
REMARK   97  A    between atoms: _261  and  _262
REMARK   98  A    between atoms: _262  and  _263
REMARK   99  A    between atoms: _272  and  _274
REMARK  100  A    between atoms: _274  and  _275
REMARK  101  A    between atoms: _274  and  _277
REMARK  102  A    between atoms: _277  and  _278
REMARK  103  A    between atoms: _283  and  _284
REMARK  104  A    between atoms: _286  and  _288
REMARK  105  A    between atoms: _288  and  _289
REMARK  106  A    between atoms: _288  and  _291
REMARK  107  A    between atoms: _291  and  _292
REMARK  108  A    between atoms: _295  and  _297
REMARK  109  A    between atoms: _297  and  _298
REMARK  110  A    between atoms: _297  and  _300
REMARK  111  A    between atoms: _300  and  _301
REMARK  112  A    between atoms: _311  and  _313
REMARK  113  A    between atoms: _313  and  _314
REMARK  114  A    between atoms: _313  and  _316
REMARK  115  A    between atoms: _316  and  _317
REMARK  116  A    between atoms: _322  and  _324
REMARK  117  A    between atoms: _324  and  _325
REMARK  118  A    between atoms: _324  and  _327
REMARK  119  A    between atoms: _327  and  _328
REMARK  120  A    between atoms: _332  and  ZN_440
REMARK  121  A    between atoms: _333  and  _335
REMARK  122  A    between atoms: _335  and  _336
REMARK  123  A    between atoms: _335  and  _338
REMARK  124  A    between atoms: _338  and  _339
REMARK  125  A    between atoms: _342  and  _344
REMARK  126  A    between atoms: _344  and  _345
REMARK  127  A    between atoms: _347  and  _349
REMARK  128  A    between atoms: _349  and  _350
REMARK  129  A    between atoms: _349  and  _352
REMARK  130  A    between atoms: _352  and  _353
REMARK  131  A    between atoms: _356  and  _358
REMARK  132  A    between atoms: _358  and  _359
REMARK  133  A    between atoms: _358  and  _361
REMARK  134  A    between atoms: _361  and  _362
REMARK  135  A    between atoms: _365  and  _367
REMARK  136  A    between atoms: _367  and  _368
REMARK  137  A    between atoms: _371  and  _373
REMARK  138  A    between atoms: _373  and  _374
REMARK  139  A    between atoms: _373  and  _376
REMARK  140  A    between atoms: _376  and  _377
REMARK  141  A    between atoms: _382  and  _383
REMARK  142  A    between atoms: _385  and  _387
REMARK  143  A    between atoms: _387  and  _388
REMARK  144  A    between atoms: _387  and  _390
REMARK  145  A    between atoms: _390  and  _391
REMARK  146  A    between atoms: _394  and  _396
REMARK  147  A    between atoms: _396  and  _397
REMARK  148  A    between atoms: _396  and  _399
REMARK  149  A    between atoms: _399  and  _400
REMARK  150  A    between atoms: _400  and  _401
REMARK  151  A    between atoms: _404  and  _406
REMARK  152  A    between atoms: _406  and  _407
REMARK  153  A    between atoms: _406  and  _409
REMARK  154  A    between atoms: _409  and  _410
REMARK  155  A    between atoms: _410  and  _411
REMARK  156  A    between atoms: _411  and  _412
REMARK  157  A    between atoms: _421  and  _423
REMARK  158  A    between atoms: _423  and  _424
REMARK  159  A    between atoms: _426  and  _428
REMARK  160  A    between atoms: _428  and  _429
REMARK  161  A    between atoms: _428  and  _431
REMARK  162  A    between atoms: _431  and  _432
REMARK  163  A    between atoms: _435  and  _437
REMARK  164  A    between atoms: _437  and  _438
REMARK                            x       y       z     vdW  Elec       q    Type
REMARK                         _______ _______ _______ _____ _____    ______ ____
ROOT
ATOM      1  CG  TRP A   1      24.526  63.276   0.802  0.00  0.00    -0.002 A 
ATOM      2  CD2 TRP A   1      25.256  63.543   1.984  0.00  0.00    +0.013 A 
ATOM      3  CE2 TRP A   1      24.345  63.460   3.071  0.00  0.00    +0.056 A 
ATOM      4  CZ2 TRP A   1      24.742  63.643   4.408  0.00  0.00    +0.017 A 
ATOM      5  CH2 TRP A   1      26.075  63.942   4.636  0.00  0.00    +0.001 A 
ATOM      6  CZ3 TRP A   1      27.015  64.009   3.561  0.00  0.00    +0.000 A 
ATOM      7  NE1 TRP A   1      23.101  63.156   2.559  0.00  0.00    -0.352 N 
ATOM      8  HE1 TRP A   1      22.230  63.031   3.113  0.00  0.00    +0.166 HD
ATOM      9  CE3 TRP A   1      26.630  63.829   2.245  0.00  0.00    +0.001 A 
ATOM     10  CD1 TRP A   1      23.207  63.047   1.202  0.00  0.00    +0.068 A 
ENDROOT
BRANCH   1  11
ATOM     11  CB  TRP A   1      25.089  63.211  -0.579  0.00  0.00    +0.053 C 
BRANCH  11  12
ATOM     12  CA  TRP A   1      24.258  63.949  -1.631  0.00  0.00    +0.137 C 
BRANCH  12  13
ATOM     13  N   TRP A   1      23.012  63.230  -1.800  0.00  0.00    -0.239 NA
ATOM     14  H   TRP A   1      23.005  62.196  -1.693  0.00  0.00    +0.142 HD
ENDBRANCH  12  13
BRANCH  12  15
ATOM     15  C   TRP A   1      24.997  63.955  -2.953  0.00  0.00    +0.224 C 
ATOM     16  O   TRP A   1      26.091  63.383  -3.088  0.00  0.00    -0.287 OA
ENDBRANCH  12  15
ENDBRANCH  11  12
ENDBRANCH   1  11
TORSDOF 4
REMARK  Name = ../refined-set-2016/3d52/3d52_pocket.pdb
REMARK  164 active torsions:
REMARK  status: ('A' for Active; 'I' for Inactive)
REMARK    1  A    between atoms: _1  and  _3
REMARK    2  A    between atoms: _14  and  _17
REMARK    3  A    between atoms: _17  and  _18
REMARK    4  A    between atoms: _25  and  _26
REMARK    5  A    between atoms: _33  and  _34
REMARK    6  A    between atoms: _39  and  _41
REMARK    7  A    between atoms: _41  and  _42
REMARK    8  A    between atoms: _44  and  _46
REMARK    9  A    between atoms: _46  and  _47
REMARK   10  A    between atoms: _46  and  _49
REMARK   11  A    between atoms: _49  and  _50
REMARK   12  A    between atoms: _60  and  _62
REMARK   13  A    between atoms: _62  and  _63
REMARK   14  A    between atoms: _62  and  _65
REMARK   15  A    between atoms: _65  and  _66
REMARK   16  A    between atoms: _69  and  _71
REMARK   17  A    between atoms: _71  and  _72
REMARK   18  A    between atoms: _71  and  _74
REMARK   19  A    between atoms: _74  and  _75
REMARK   20  A    between atoms: _75  and  _76
REMARK   21  A    between atoms: _81  and  _83
REMARK   22  A    between atoms: _83  and  _84
REMARK   23  A    between atoms: _83  and  _86
REMARK   24  A    between atoms: _86  and  _87
REMARK   25  A    between atoms: _92  and  _93
REMARK   26  A    between atoms: _95  and  _97
REMARK   27  A    between atoms: _97  and  _98
REMARK   28  A    between atoms: _97  and  _100
REMARK   29  A    between atoms: _100  and  _101
REMARK   30  A    between atoms: _104  and  _106
REMARK   31  A    between atoms: _106  and  _107
REMARK   32  A    between atoms: _106  and  _109
REMARK   33  A    between atoms: _109  and  _110
REMARK   34  A    between atoms: _110  and  _111
REMARK   35  A    between atoms: _113  and  _115
REMARK   36  A    between atoms: _115  and  _116
REMARK   37  A    between atoms: _115  and  _118
REMARK   38  A    between atoms: _118  and  _119
REMARK   39  A    between atoms: _122  and  _124
REMARK   40  A    between atoms: _124  and  _125
REMARK   41  A    between atoms: _124  and  _127
REMARK   42  A    between atoms: _127  and  _128
REMARK   43  A    between atoms: _128  and  _130
REMARK   44  A    between atoms: _130  and  ZN_440
REMARK   45  A    between atoms: _132  and  _133
REMARK   46  A    between atoms: _138  and  _140
REMARK   47  A    between atoms: _140  and  _141
REMARK   48  A    between atoms: _140  and  _143
REMARK   49  A    between atoms: _143  and  _144
REMARK   50  A    between atoms: _150  and  _152
REMARK   51  A    between atoms: _152  and  _153
REMARK   52  A    between atoms: _152  and  _155
REMARK   53  A    between atoms: _155  and  _156
REMARK   54  A    between atoms: _156  and  _157
REMARK   55  A    between atoms: _157  and  _158
REMARK   56  A    between atoms: _167  and  _169
REMARK   57  A    between atoms: _169  and  _170
REMARK   58  A    between atoms: _169  and  _172
REMARK   59  A    between atoms: _172  and  _173
REMARK   60  A    between atoms: _178  and  _179
REMARK   61  A    between atoms: _181  and  _183
REMARK   62  A    between atoms: _183  and  _184
REMARK   63  A    between atoms: _183  and  _186
REMARK   64  A    between atoms: _186  and  _187
REMARK   65  A    between atoms: _189  and  _191
REMARK   66  A    between atoms: _191  and  _192
REMARK   67  A    between atoms: _191  and  _194
REMARK   68  A    between atoms: _194  and  _195
REMARK   69  A    between atoms: _200  and  _201
REMARK   70  A    between atoms: _203  and  _205
REMARK   71  A    between atoms: _205  and  _206
REMARK   72  A    between atoms: _205  and  _208
REMARK   73  A    between atoms: _208  and  _209
REMARK   74  A    between atoms: _209  and  _210
REMARK   75  A    between atoms: _210  and  _211
REMARK   76  A    between atoms: _211  and  _212
REMARK   77  A    between atoms: _216  and  _218
REMARK   78  A    between atoms: _218  and  _219
REMARK   79  A    between atoms: _218  and  _221
REMARK   80  A    between atoms: _221  and  _222
REMARK   81  A    between atoms: _225  and  _227
REMARK   82  A    between atoms: _227  and  _228
REMARK   83  A    between atoms: _227  and  _230
REMARK   84  A    between atoms: _230  and  _231
REMARK   85  A    between atoms: _234  and  _236
REMARK   86  A    between atoms: _236  and  _237
REMARK   87  A    between atoms: _236  and  _239
REMARK   88  A    between atoms: _239  and  _240
REMARK   89  A    between atoms: _243  and  _245
REMARK   90  A    between atoms: _245  and  _246
REMARK   91  A    between atoms: _245  and  _248
REMARK   92  A    between atoms: _248  and  _249
REMARK   93  A    between atoms: _255  and  _257
REMARK   94  A    between atoms: _257  and  _258
REMARK   95  A    between atoms: _257  and  _260
REMARK   96  A    between atoms: _260  and  _261
REMARK   97  A    between atoms: _261  and  _262
REMARK   98  A    between atoms: _262  and  _263
REMARK   99  A    between atoms: _272  and  _274
REMARK  100  A    between atoms: _274  and  _275
REMARK  101  A    between atoms: _274  and  _277
REMARK  102  A    between atoms: _277  and  _278
REMARK  103  A    between atoms: _283  and  _284
REMARK  104  A    between atoms: _286  and  _288
REMARK  105  A    between atoms: _288  and  _289
REMARK  106  A    between atoms: _288  and  _291
REMARK  107  A    between atoms: _291  and  _292
REMARK  108  A    between atoms: _295  and  _297
REMARK  109  A    between atoms: _297  and  _298
REMARK  110  A    between atoms: _297  and  _300
REMARK  111  A    between atoms: _300  and  _301
REMARK  112  A    between atoms: _311  and  _313
REMARK  113  A    between atoms: _313  and  _314
REMARK  114  A    between atoms: _313  and  _316
REMARK  115  A    between atoms: _316  and  _317
REMARK  116  A    between atoms: _322  and  _324
REMARK  117  A    between atoms: _324  and  _325
REMARK  118  A    between atoms: _324  and  _327
REMARK  119  A    between atoms: _327  and  _328
REMARK  120  A    between atoms: _332  and  ZN_440
REMARK  121  A    between atoms: _333  and  _335
REMARK  122  A    between atoms: _335  and  _336
REMARK  123  A    between atoms: _335  and  _338
REMARK  124  A    between atoms: _338  and  _339
REMARK  125  A    between atoms: _342  and  _344
REMARK  126  A    between atoms: _344  and  _345
REMARK  127  A    between atoms: _347  and  _349
REMARK  128  A    between atoms: _349  and  _350
REMARK  129  A    between atoms: _349  and  _352
REMARK  130  A    between atoms: _352  and  _353
REMARK  131  A    between atoms: _356  and  _358
REMARK  132  A    between atoms: _358  and  _359
REMARK  133  A    between atoms: _358  and  _361
REMARK  134  A    between atoms: _361  and  _362
REMARK  135  A    between atoms: _365  and  _367
REMARK  136  A    between atoms: _367  and  _368
REMARK  137  A    between atoms: _371  and  _373
REMARK  138  A    between atoms: _373  and  _374
REMARK  139  A    between atoms: _373  and  _376
REMARK  140  A    between atoms: _376  and  _377
REMARK  141  A    between atoms: _382  and  _383
REMARK  142  A    between atoms: _385  and  _387
REMARK  143  A    between atoms: _387  and  _388
REMARK  144  A    between atoms: _387  and  _390
REMARK  145  A    between atoms: _390  and  _391
REMARK  146  A    between atoms: _394  and  _396
REMARK  147  A    between atoms: _396  and  _397
REMARK  148  A    between atoms: _396  and  _399
REMARK  149  A    between atoms: _399  and  _400
REMARK  150  A    between atoms: _400  and  _401
REMARK  151  A    between atoms: _404  and  _406
REMARK  152  A    between atoms: _406  and  _407
REMARK  153  A    between atoms: _406  and  _409
REMARK  154  A    between atoms: _409  and  _410
REMARK  155  A    between atoms: _410  and  _411
REMARK  156  A    between atoms: _411  and  _412
REMARK  157  A    between atoms: _421  and  _423
REMARK  158  A    between atoms: _423  and  _424
REMARK  159  A    between atoms: _426  and  _428
REMARK  160  A    between atoms: _428  and  _429
REMARK  161  A    between atoms: _428  and  _431
REMARK  162  A    between atoms: _431  and  _432
REMARK  163  A    between atoms: _435  and  _437
REMARK  164  A    between atoms: _437  and  _438
REMARK                            x       y       z     vdW  Elec       q    Type
REMARK                         _______ _______ _______ _____ _____    ______ ____
ROOT
ATOM      1  CA  THR A   1      34.452  67.035  -1.921  0.00  0.00    +0.160 C 
ENDROOT
BRANCH   1   2
ATOM      2  N   THR A   1      35.924  67.009  -1.873  0.00  0.00    -0.237 NA
ATOM      3  H   THR A   1      36.399  66.636  -1.026  0.00  0.00    +0.142 HD
ENDBRANCH   1   2
BRANCH   1   4
ATOM      4  CB  THR A   1      33.920  66.364  -0.692  0.00  0.00    +0.134 C 
ATOM      5  CG2 THR A   1      34.283  64.890  -0.642  0.00  0.00    +0.034 C 
BRANCH   4   6
ATOM      6  OG1 THR A   1      34.439  67.043   0.459  0.00  0.00    -0.383 OA
ATOM      7  HG1 THR A   1      34.095  66.609   1.280  0.00  0.00    +0.210 HD
ENDBRANCH   4   6
ENDBRANCH   1   4
BRANCH   1   8
ATOM      8  C   THR A   1      33.924  68.464  -1.900  0.00  0.00    +0.227 C 
ATOM      9  O   THR A   1      32.745  68.667  -2.222  0.00  0.00    -0.287 OA
ENDBRANCH   1   8
TORSDOF 4
REMARK  Name = ../refined-set-2016/3d52/3d52_pocket.pdb
REMARK  164 active torsions:
REMARK  status: ('A' for Active; 'I' for Inactive)
REMARK    1  A    between atoms: _1  and  _3
REMARK    2  A    between atoms: _14  and  _17
REMARK    3  A    between atoms: _17  and  _18
REMARK    4  A    between atoms: _25  and  _26
REMARK    5  A    between atoms: _33  and  _34
REMARK    6  A    between atoms: _39  and  _41
REMARK    7  A    between atoms: _41  and  _42
REMARK    8  A    between atoms: _44  and  _46
REMARK    9  A    between atoms: _46  and  _47
REMARK   10  A    between atoms: _46  and  _49
REMARK   11  A    between atoms: _49  and  _50
REMARK   12  A    between atoms: _60  and  _62
REMARK   13  A    between atoms: _62  and  _63
REMARK   14  A    between atoms: _62  and  _65
REMARK   15  A    between atoms: _65  and  _66
REMARK   16  A    between atoms: _69  and  _71
REMARK   17  A    between atoms: _71  and  _72
REMARK   18  A    between atoms: _71  and  _74
REMARK   19  A    between atoms: _74  and  _75
REMARK   20  A    between atoms: _75  and  _76
REMARK   21  A    between atoms: _81  and  _83
REMARK   22  A    between atoms: _83  and  _84
REMARK   23  A    between atoms: _83  and  _86
REMARK   24  A    between atoms: _86  and  _87
REMARK   25  A    between atoms: _92  and  _93
REMARK   26  A    between atoms: _95  and  _97
REMARK   27  A    between atoms: _97  and  _98
REMARK   28  A    between atoms: _97  and  _100
REMARK   29  A    between atoms: _100  and  _101
REMARK   30  A    between atoms: _104  and  _106
REMARK   31  A    between atoms: _106  and  _107
REMARK   32  A    between atoms: _106  and  _109
REMARK   33  A    between atoms: _109  and  _110
REMARK   34  A    between atoms: _110  and  _111
REMARK   35  A    between atoms: _113  and  _115
REMARK   36  A    between atoms: _115  and  _116
REMARK   37  A    between atoms: _115  and  _118
REMARK   38  A    between atoms: _118  and  _119
REMARK   39  A    between atoms: _122  and  _124
REMARK   40  A    between atoms: _124  and  _125
REMARK   41  A    between atoms: _124  and  _127
REMARK   42  A    between atoms: _127  and  _128
REMARK   43  A    between atoms: _128  and  _130
REMARK   44  A    between atoms: _130  and  ZN_440
REMARK   45  A    between atoms: _132  and  _133
REMARK   46  A    between atoms: _138  and  _140
REMARK   47  A    between atoms: _140  and  _141
REMARK   48  A    between atoms: _140  and  _143
REMARK   49  A    between atoms: _143  and  _144
REMARK   50  A    between atoms: _150  and  _152
REMARK   51  A    between atoms: _152  and  _153
REMARK   52  A    between atoms: _152  and  _155
REMARK   53  A    between atoms: _155  and  _156
REMARK   54  A    between atoms: _156  and  _157
REMARK   55  A    between atoms: _157  and  _158
REMARK   56  A    between atoms: _167  and  _169
REMARK   57  A    between atoms: _169  and  _170
REMARK   58  A    between atoms: _169  and  _172
REMARK   59  A    between atoms: _172  and  _173
REMARK   60  A    between atoms: _178  and  _179
REMARK   61  A    between atoms: _181  and  _183
REMARK   62  A    between atoms: _183  and  _184
REMARK   63  A    between atoms: _183  and  _186
REMARK   64  A    between atoms: _186  and  _187
REMARK   65  A    between atoms: _189  and  _191
REMARK   66  A    between atoms: _191  and  _192
REMARK   67  A    between atoms: _191  and  _194
REMARK   68  A    between atoms: _194  and  _195
REMARK   69  A    between atoms: _200  and  _201
REMARK   70  A    between atoms: _203  and  _205
REMARK   71  A    between atoms: _205  and  _206
REMARK   72  A    between atoms: _205  and  _208
REMARK   73  A    between atoms: _208  and  _209
REMARK   74  A    between atoms: _209  and  _210
REMARK   75  A    between atoms: _210  and  _211
REMARK   76  A    between atoms: _211  and  _212
REMARK   77  A    between atoms: _216  and  _218
REMARK   78  A    between atoms: _218  and  _219
REMARK   79  A    between atoms: _218  and  _221
REMARK   80  A    between atoms: _221  and  _222
REMARK   81  A    between atoms: _225  and  _227
REMARK   82  A    between atoms: _227  and  _228
REMARK   83  A    between atoms: _227  and  _230
REMARK   84  A    between atoms: _230  and  _231
REMARK   85  A    between atoms: _234  and  _236
REMARK   86  A    between atoms: _236  and  _237
REMARK   87  A    between atoms: _236  and  _239
REMARK   88  A    between atoms: _239  and  _240
REMARK   89  A    between atoms: _243  and  _245
REMARK   90  A    between atoms: _245  and  _246
REMARK   91  A    between atoms: _245  and  _248
REMARK   92  A    between atoms: _248  and  _249
REMARK   93  A    between atoms: _255  and  _257
REMARK   94  A    between atoms: _257  and  _258
REMARK   95  A    between atoms: _257  and  _260
REMARK   96  A    between atoms: _260  and  _261
REMARK   97  A    between atoms: _261  and  _262
REMARK   98  A    between atoms: _262  and  _263
REMARK   99  A    between atoms: _272  and  _274
REMARK  100  A    between atoms: _274  and  _275
REMARK  101  A    between atoms: _274  and  _277
REMARK  102  A    between atoms: _277  and  _278
REMARK  103  A    between atoms: _283  and  _284
REMARK  104  A    between atoms: _286  and  _288
REMARK  105  A    between atoms: _288  and  _289
REMARK  106  A    between atoms: _288  and  _291
REMARK  107  A    between atoms: _291  and  _292
REMARK  108  A    between atoms: _295  and  _297
REMARK  109  A    between atoms: _297  and  _298
REMARK  110  A    between atoms: _297  and  _300
REMARK  111  A    between atoms: _300  and  _301
REMARK  112  A    between atoms: _311  and  _313
REMARK  113  A    between atoms: _313  and  _314
REMARK  114  A    between atoms: _313  and  _316
REMARK  115  A    between atoms: _316  and  _317
REMARK  116  A    between atoms: _322  and  _324
REMARK  117  A    between atoms: _324  and  _325
REMARK  118  A    between atoms: _324  and  _327
REMARK  119  A    between atoms: _327  and  _328
REMARK  120  A    between atoms: _332  and  ZN_440
REMARK  121  A    between atoms: _333  and  _335
REMARK  122  A    between atoms: _335  and  _336
REMARK  123  A    between atoms: _335  and  _338
REMARK  124  A    between atoms: _338  and  _339
REMARK  125  A    between atoms: _342  and  _344
REMARK  126  A    between atoms: _344  and  _345
REMARK  127  A    between atoms: _347  and  _349
REMARK  128  A    between atoms: _349  and  _350
REMARK  129  A    between atoms: _349  and  _352
REMARK  130  A    between atoms: _352  and  _353
REMARK  131  A    between atoms: _356  and  _358
REMARK  132  A    between atoms: _358  and  _359
REMARK  133  A    between atoms: _358  and  _361
REMARK  134  A    between atoms: _361  and  _362
REMARK  135  A    between atoms: _365  and  _367
REMARK  136  A    between atoms: _367  and  _368
REMARK  137  A    between atoms: _371  and  _373
REMARK  138  A    between atoms: _373  and  _374
REMARK  139  A    between atoms: _373  and  _376
REMARK  140  A    between atoms: _376  and  _377
REMARK  141  A    between atoms: _382  and  _383
REMARK  142  A    between atoms: _385  and  _387
REMARK  143  A    between atoms: _387  and  _388
REMARK  144  A    between atoms: _387  and  _390
REMARK  145  A    between atoms: _390  and  _391
REMARK  146  A    between atoms: _394  and  _396
REMARK  147  A    between atoms: _396  and  _397
REMARK  148  A    between atoms: _396  and  _399
REMARK  149  A    between atoms: _399  and  _400
REMARK  150  A    between atoms: _400  and  _401
REMARK  151  A    between atoms: _404  and  _406
REMARK  152  A    between atoms: _406  and  _407
REMARK  153  A    between atoms: _406  and  _409
REMARK  154  A    between atoms: _409  and  _410
REMARK  155  A    between atoms: _410  and  _411
REMARK  156  A    between atoms: _411  and  _412
REMARK  157  A    between atoms: _421  and  _423
REMARK  158  A    between atoms: _423  and  _424
REMARK  159  A    between atoms: _426  and  _428
REMARK  160  A    between atoms: _428  and  _429
REMARK  161  A    between atoms: _428  and  _431
REMARK  162  A    between atoms: _431  and  _432
REMARK  163  A    between atoms: _435  and  _437
REMARK  164  A    between atoms: _437  and  _438
REMARK                            x       y       z     vdW  Elec       q    Type
REMARK                         _______ _______ _______ _____ _____    ______ ____
ROOT
ATOM      1  C   THR A   1      33.052  70.958   3.231  0.00  0.00    +0.241 C 
ATOM      2  O   THR A   1      32.531  70.740   4.305  0.00  0.00    -0.274 OA
ATOM      3  N   ALA A   2      34.144  71.702   3.091  0.00  0.00    -0.298 N 
ATOM      4  H   ALA A   2      34.557  71.822   2.144  0.00  0.00    +0.150 HD
ENDROOT
BRANCH   3   5
ATOM      5  CA  ALA A   2      34.779  72.355   4.229  0.00  0.00    +0.137 C 
ATOM      6  CB  ALA A   2      36.308  72.162   4.181  0.00  0.00    +0.030 C 
BRANCH   5   7
ATOM      7  C   ALA A   2      34.399  73.850   4.338  0.00  0.00    +0.227 C 
ATOM      8  O   ALA A   2      33.863  74.443   3.404  0.00  0.00    -0.286 OA
ENDBRANCH   5   7
ENDBRANCH   3   5
BRANCH   1   9
ATOM      9  CA  THR A   1      32.435  70.399   1.936  0.00  0.00    +0.172 C 
BRANCH   9  10
ATOM     10  N   THR A   1      33.357  70.314   0.807  0.00  0.00    -0.236 NA
ATOM     11  H   THR A   1      34.169  69.667   0.869  0.00  0.00    +0.142 HD
ENDBRANCH   9  10
BRANCH   9  12
ATOM     12  CB  THR A   1      31.780  69.033   2.236  0.00  0.00    +0.135 C 
ATOM     13  CG2 THR A   1      30.927  68.591   1.043  0.00  0.00    +0.034 C 
BRANCH  12  14
ATOM     14  OG1 THR A   1      32.788  68.053   2.547  0.00  0.00    -0.383 OA
ATOM     15  HG1 THR A   1      33.401  67.956   1.776  0.00  0.00    +0.210 HD
ENDBRANCH  12  14
ENDBRANCH   9  12
ENDBRANCH   1   9
TORSDOF 6
REMARK  Name = ../refined-set-2016/3d52/3d52_pocket.pdb
REMARK  164 active torsions:
REMARK  status: ('A' for Active; 'I' for Inactive)
REMARK    1  A    between atoms: _1  and  _3
REMARK    2  A    between atoms: _14  and  _17
REMARK    3  A    between atoms: _17  and  _18
REMARK    4  A    between atoms: _25  and  _26
REMARK    5  A    between atoms: _33  and  _34
REMARK    6  A    between atoms: _39  and  _41
REMARK    7  A    between atoms: _41  and  _42
REMARK    8  A    between atoms: _44  and  _46
REMARK    9  A    between atoms: _46  and  _47
REMARK   10  A    between atoms: _46  and  _49
REMARK   11  A    between atoms: _49  and  _50
REMARK   12  A    between atoms: _60  and  _62
REMARK   13  A    between atoms: _62  and  _63
REMARK   14  A    between atoms: _62  and  _65
REMARK   15  A    between atoms: _65  and  _66
REMARK   16  A    between atoms: _69  and  _71
REMARK   17  A    between atoms: _71  and  _72
REMARK   18  A    between atoms: _71  and  _74
REMARK   19  A    between atoms: _74  and  _75
REMARK   20  A    between atoms: _75  and  _76
REMARK   21  A    between atoms: _81  and  _83
REMARK   22  A    between atoms: _83  and  _84
REMARK   23  A    between atoms: _83  and  _86
REMARK   24  A    between atoms: _86  and  _87
REMARK   25  A    between atoms: _92  and  _93
REMARK   26  A    between atoms: _95  and  _97
REMARK   27  A    between atoms: _97  and  _98
REMARK   28  A    between atoms: _97  and  _100
REMARK   29  A    between atoms: _100  and  _101
REMARK   30  A    between atoms: _104  and  _106
REMARK   31  A    between atoms: _106  and  _107
REMARK   32  A    between atoms: _106  and  _109
REMARK   33  A    between atoms: _109  and  _110
REMARK   34  A    between atoms: _110  and  _111
REMARK   35  A    between atoms: _113  and  _115
REMARK   36  A    between atoms: _115  and  _116
REMARK   37  A    between atoms: _115  and  _118
REMARK   38  A    between atoms: _118  and  _119
REMARK   39  A    between atoms: _122  and  _124
REMARK   40  A    between atoms: _124  and  _125
REMARK   41  A    between atoms: _124  and  _127
REMARK   42  A    between atoms: _127  and  _128
REMARK   43  A    between atoms: _128  and  _130
REMARK   44  A    between atoms: _130  and  ZN_440
REMARK   45  A    between atoms: _132  and  _133
REMARK   46  A    between atoms: _138  and  _140
REMARK   47  A    between atoms: _140  and  _141
REMARK   48  A    between atoms: _140  and  _143
REMARK   49  A    between atoms: _143  and  _144
REMARK   50  A    between atoms: _150  and  _152
REMARK   51  A    between atoms: _152  and  _153
REMARK   52  A    between atoms: _152  and  _155
REMARK   53  A    between atoms: _155  and  _156
REMARK   54  A    between atoms: _156  and  _157
REMARK   55  A    between atoms: _157  and  _158
REMARK   56  A    between atoms: _167  and  _169
REMARK   57  A    between atoms: _169  and  _170
REMARK   58  A    between atoms: _169  and  _172
REMARK   59  A    between atoms: _172  and  _173
REMARK   60  A    between atoms: _178  and  _179
REMARK   61  A    between atoms: _181  and  _183
REMARK   62  A    between atoms: _183  and  _184
REMARK   63  A    between atoms: _183  and  _186
REMARK   64  A    between atoms: _186  and  _187
REMARK   65  A    between atoms: _189  and  _191
REMARK   66  A    between atoms: _191  and  _192
REMARK   67  A    between atoms: _191  and  _194
REMARK   68  A    between atoms: _194  and  _195
REMARK   69  A    between atoms: _200  and  _201
REMARK   70  A    between atoms: _203  and  _205
REMARK   71  A    between atoms: _205  and  _206
REMARK   72  A    between atoms: _205  and  _208
REMARK   73  A    between atoms: _208  and  _209
REMARK   74  A    between atoms: _209  and  _210
REMARK   75  A    between atoms: _210  and  _211
REMARK   76  A    between atoms: _211  and  _212
REMARK   77  A    between atoms: _216  and  _218
REMARK   78  A    between atoms: _218  and  _219
REMARK   79  A    between atoms: _218  and  _221
REMARK   80  A    between atoms: _221  and  _222
REMARK   81  A    between atoms: _225  and  _227
REMARK   82  A    between atoms: _227  and  _228
REMARK   83  A    between atoms: _227  and  _230
REMARK   84  A    between atoms: _230  and  _231
REMARK   85  A    between atoms: _234  and  _236
REMARK   86  A    between atoms: _236  and  _237
REMARK   87  A    between atoms: _236  and  _239
REMARK   88  A    between atoms: _239  and  _240
REMARK   89  A    between atoms: _243  and  _245
REMARK   90  A    between atoms: _245  and  _246
REMARK   91  A    between atoms: _245  and  _248
REMARK   92  A    between atoms: _248  and  _249
REMARK   93  A    between atoms: _255  and  _257
REMARK   94  A    between atoms: _257  and  _258
REMARK   95  A    between atoms: _257  and  _260
REMARK   96  A    between atoms: _260  and  _261
REMARK   97  A    between atoms: _261  and  _262
REMARK   98  A    between atoms: _262  and  _263
REMARK   99  A    between atoms: _272  and  _274
REMARK  100  A    between atoms: _274  and  _275
REMARK  101  A    between atoms: _274  and  _277
REMARK  102  A    between atoms: _277  and  _278
REMARK  103  A    between atoms: _283  and  _284
REMARK  104  A    between atoms: _286  and  _288
REMARK  105  A    between atoms: _288  and  _289
REMARK  106  A    between atoms: _288  and  _291
REMARK  107  A    between atoms: _291  and  _292
REMARK  108  A    between atoms: _295  and  _297
REMARK  109  A    between atoms: _297  and  _298
REMARK  110  A    between atoms: _297  and  _300
REMARK  111  A    between atoms: _300  and  _301
REMARK  112  A    between atoms: _311  and  _313
REMARK  113  A    between atoms: _313  and  _314
REMARK  114  A    between atoms: _313  and  _316
REMARK  115  A    between atoms: _316  and  _317
REMARK  116  A    between atoms: _322  and  _324
REMARK  117  A    between atoms: _324  and  _325
REMARK  118  A    between atoms: _324  and  _327
REMARK  119  A    between atoms: _327  and  _328
REMARK  120  A    between atoms: _332  and  ZN_440
REMARK  121  A    between atoms: _333  and  _335
REMARK  122  A    between atoms: _335  and  _336
REMARK  123  A    between atoms: _335  and  _338
REMARK  124  A    between atoms: _338  and  _339
REMARK  125  A    between atoms: _342  and  _344
REMARK  126  A    between atoms: _344  and  _345
REMARK  127  A    between atoms: _347  and  _349
REMARK  128  A    between atoms: _349  and  _350
REMARK  129  A    between atoms: _349  and  _352
REMARK  130  A    between atoms: _352  and  _353
REMARK  131  A    between atoms: _356  and  _358
REMARK  132  A    between atoms: _358  and  _359
REMARK  133  A    between atoms: _358  and  _361
REMARK  134  A    between atoms: _361  and  _362
REMARK  135  A    between atoms: _365  and  _367
REMARK  136  A    between atoms: _367  and  _368
REMARK  137  A    between atoms: _371  and  _373
REMARK  138  A    between atoms: _373  and  _374
REMARK  139  A    between atoms: _373  and  _376
REMARK  140  A    between atoms: _376  and  _377
REMARK  141  A    between atoms: _382  and  _383
REMARK  142  A    between atoms: _385  and  _387
REMARK  143  A    between atoms: _387  and  _388
REMARK  144  A    between atoms: _387  and  _390
REMARK  145  A    between atoms: _390  and  _391
REMARK  146  A    between atoms: _394  and  _396
REMARK  147  A    between atoms: _396  and  _397
REMARK  148  A    between atoms: _396  and  _399
REMARK  149  A    between atoms: _399  and  _400
REMARK  150  A    between atoms: _400  and  _401
REMARK  151  A    between atoms: _404  and  _406
REMARK  152  A    between atoms: _406  and  _407
REMARK  153  A    between atoms: _406  and  _409
REMARK  154  A    between atoms: _409  and  _410
REMARK  155  A    between atoms: _410  and  _411
REMARK  156  A    between atoms: _411  and  _412
REMARK  157  A    between atoms: _421  and  _423
REMARK  158  A    between atoms: _423  and  _424
REMARK  159  A    between atoms: _426  and  _428
REMARK  160  A    between atoms: _428  and  _429
REMARK  161  A    between atoms: _428  and  _431
REMARK  162  A    between atoms: _431  and  _432
REMARK  163  A    between atoms: _435  and  _437
REMARK  164  A    between atoms: _437  and  _438
REMARK                            x       y       z     vdW  Elec       q    Type
REMARK                         _______ _______ _______ _____ _____    ______ ____
ROOT
ATOM      1  CG  TYR A   1      27.200  67.985   2.600  0.00  0.00    -0.020 A 
ATOM      2  CD2 TYR A   1      27.112  69.116   3.429  0.00  0.00    -0.001 A 
ATOM      3  CE2 TYR A   1      28.043  69.349   4.442  0.00  0.00    +0.036 A 
ATOM      4  CZ  TYR A   1      29.089  68.442   4.624  0.00  0.00    +0.134 A 
ATOM      5  CE1 TYR A   1      29.170  67.283   3.837  0.00  0.00    +0.036 A 
ATOM      6  CD1 TYR A   1      28.238  67.074   2.814  0.00  0.00    -0.001 A 
ENDROOT
BRANCH   4   7
ATOM      7  OH  TYR A   1      29.971  68.683   5.647  0.00  0.00    -0.506 OA
ATOM      8  HH  TYR A   1      29.908  67.954   6.314  0.00  0.00    +0.292 HD
ENDBRANCH   4   7
BRANCH   1   9
ATOM      9  CB  TYR A   1      26.188  67.704   1.523  0.00  0.00    +0.051 C 
BRANCH   9  10
ATOM     10  CA  TYR A   1      26.476  68.413   0.180  0.00  0.00    +0.137 C 
BRANCH  10  11
ATOM     11  N   TYR A   1      26.677  69.855   0.346  0.00  0.00    -0.239 NA
ATOM     12  H   TYR A   1      26.184  70.373   1.101  0.00  0.00    +0.142 HD
ENDBRANCH  10  11
BRANCH  10  13
ATOM     13  C   TYR A   1      25.328  68.043  -0.730  0.00  0.00    +0.224 C 
ATOM     14  O   TYR A   1      25.444  67.152  -1.596  0.00  0.00    -0.287 OA
ENDBRANCH  10  13
ENDBRANCH   9  10
ENDBRANCH   1   9
TORSDOF 5
REMARK  Name = ../refined-set-2016/3d52/3d52_pocket.pdb
REMARK  164 active torsions:
REMARK  status: ('A' for Active; 'I' for Inactive)
REMARK    1  A    between atoms: _1  and  _3
REMARK    2  A    between atoms: _14  and  _17
REMARK    3  A    between atoms: _17  and  _18
REMARK    4  A    between atoms: _25  and  _26
REMARK    5  A    between atoms: _33  and  _34
REMARK    6  A    between atoms: _39  and  _41
REMARK    7  A    between atoms: _41  and  _42
REMARK    8  A    between atoms: _44  and  _46
REMARK    9  A    between atoms: _46  and  _47
REMARK   10  A    between atoms: _46  and  _49
REMARK   11  A    between atoms: _49  and  _50
REMARK   12  A    between atoms: _60  and  _62
REMARK   13  A    between atoms: _62  and  _63
REMARK   14  A    between atoms: _62  and  _65
REMARK   15  A    between atoms: _65  and  _66
REMARK   16  A    between atoms: _69  and  _71
REMARK   17  A    between atoms: _71  and  _72
REMARK   18  A    between atoms: _71  and  _74
REMARK   19  A    between atoms: _74  and  _75
REMARK   20  A    between atoms: _75  and  _76
REMARK   21  A    between atoms: _81  and  _83
REMARK   22  A    between atoms: _83  and  _84
REMARK   23  A    between atoms: _83  and  _86
REMARK   24  A    between atoms: _86  and  _87
REMARK   25  A    between atoms: _92  and  _93
REMARK   26  A    between atoms: _95  and  _97
REMARK   27  A    between atoms: _97  and  _98
REMARK   28  A    between atoms: _97  and  _100
REMARK   29  A    between atoms: _100  and  _101
REMARK   30  A    between atoms: _104  and  _106
REMARK   31  A    between atoms: _106  and  _107
REMARK   32  A    between atoms: _106  and  _109
REMARK   33  A    between atoms: _109  and  _110
REMARK   34  A    between atoms: _110  and  _111
REMARK   35  A    between atoms: _113  and  _115
REMARK   36  A    between atoms: _115  and  _116
REMARK   37  A    between atoms: _115  and  _118
REMARK   38  A    between atoms: _118  and  _119
REMARK   39  A    between atoms: _122  and  _124
REMARK   40  A    between atoms: _124  and  _125
REMARK   41  A    between atoms: _124  and  _127
REMARK   42  A    between atoms: _127  and  _128
REMARK   43  A    between atoms: _128  and  _130
REMARK   44  A    between atoms: _130  and  ZN_440
REMARK   45  A    between atoms: _132  and  _133
REMARK   46  A    between atoms: _138  and  _140
REMARK   47  A    between atoms: _140  and  _141
REMARK   48  A    between atoms: _140  and  _143
REMARK   49  A    between atoms: _143  and  _144
REMARK   50  A    between atoms: _150  and  _152
REMARK   51  A    between atoms: _152  and  _153
REMARK   52  A    between atoms: _152  and  _155
REMARK   53  A    between atoms: _155  and  _156
REMARK   54  A    between atoms: _156  and  _157
REMARK   55  A    between atoms: _157  and  _158
REMARK   56  A    between atoms: _167  and  _169
REMARK   57  A    between atoms: _169  and  _170
REMARK   58  A    between atoms: _169  and  _172
REMARK   59  A    between atoms: _172  and  _173
REMARK   60  A    between atoms: _178  and  _179
REMARK   61  A    between atoms: _181  and  _183
REMARK   62  A    between atoms: _183  and  _184
REMARK   63  A    between atoms: _183  and  _186
REMARK   64  A    between atoms: _186  and  _187
REMARK   65  A    between atoms: _189  and  _191
REMARK   66  A    between atoms: _191  and  _192
REMARK   67  A    between atoms: _191  and  _194
REMARK   68  A    between atoms: _194  and  _195
REMARK   69  A    between atoms: _200  and  _201
REMARK   70  A    between atoms: _203  and  _205
REMARK   71  A    between atoms: _205  and  _206
REMARK   72  A    between atoms: _205  and  _208
REMARK   73  A    between atoms: _208  and  _209
REMARK   74  A    between atoms: _209  and  _210
REMARK   75  A    between atoms: _210  and  _211
REMARK   76  A    between atoms: _211  and  _212
REMARK   77  A    between atoms: _216  and  _218
REMARK   78  A    between atoms: _218  and  _219
REMARK   79  A    between atoms: _218  and  _221
REMARK   80  A    between atoms: _221  and  _222
REMARK   81  A    between atoms: _225  and  _227
REMARK   82  A    between atoms: _227  and  _228
REMARK   83  A    between atoms: _227  and  _230
REMARK   84  A    between atoms: _230  and  _231
REMARK   85  A    between atoms: _234  and  _236
REMARK   86  A    between atoms: _236  and  _237
REMARK   87  A    between atoms: _236  and  _239
REMARK   88  A    between atoms: _239  and  _240
REMARK   89  A    between atoms: _243  and  _245
REMARK   90  A    between atoms: _245  and  _246
REMARK   91  A    between atoms: _245  and  _248
REMARK   92  A    between atoms: _248  and  _249
REMARK   93  A    between atoms: _255  and  _257
REMARK   94  A    between atoms: _257  and  _258
REMARK   95  A    between atoms: _257  and  _260
REMARK   96  A    between atoms: _260  and  _261
REMARK   97  A    between atoms: _261  and  _262
REMARK   98  A    between atoms: _262  and  _263
REMARK   99  A    between atoms: _272  and  _274
REMARK  100  A    between atoms: _274  and  _275
REMARK  101  A    between atoms: _274  and  _277
REMARK  102  A    between atoms: _277  and  _278
REMARK  103  A    between atoms: _283  and  _284
REMARK  104  A    between atoms: _286  and  _288
REMARK  105  A    between atoms: _288  and  _289
REMARK  106  A    between atoms: _288  and  _291
REMARK  107  A    between atoms: _291  and  _292
REMARK  108  A    between atoms: _295  and  _297
REMARK  109  A    between atoms: _297  and  _298
REMARK  110  A    between atoms: _297  and  _300
REMARK  111  A    between atoms: _300  and  _301
REMARK  112  A    between atoms: _311  and  _313
REMARK  113  A    between atoms: _313  and  _314
REMARK  114  A    between atoms: _313  and  _316
REMARK  115  A    between atoms: _316  and  _317
REMARK  116  A    between atoms: _322  and  _324
REMARK  117  A    between atoms: _324  and  _325
REMARK  118  A    between atoms: _324  and  _327
REMARK  119  A    between atoms: _327  and  _328
REMARK  120  A    between atoms: _332  and  ZN_440
REMARK  121  A    between atoms: _333  and  _335
REMARK  122  A    between atoms: _335  and  _336
REMARK  123  A    between atoms: _335  and  _338
REMARK  124  A    between atoms: _338  and  _339
REMARK  125  A    between atoms: _342  and  _344
REMARK  126  A    between atoms: _344  and  _345
REMARK  127  A    between atoms: _347  and  _349
REMARK  128  A    between atoms: _349  and  _350
REMARK  129  A    between atoms: _349  and  _352
REMARK  130  A    between atoms: _352  and  _353
REMARK  131  A    between atoms: _356  and  _358
REMARK  132  A    between atoms: _358  and  _359
REMARK  133  A    between atoms: _358  and  _361
REMARK  134  A    between atoms: _361  and  _362
REMARK  135  A    between atoms: _365  and  _367
REMARK  136  A    between atoms: _367  and  _368
REMARK  137  A    between atoms: _371  and  _373
REMARK  138  A    between atoms: _373  and  _374
REMARK  139  A    between atoms: _373  and  _376
REMARK  140  A    between atoms: _376  and  _377
REMARK  141  A    between atoms: _382  and  _383
REMARK  142  A    between atoms: _385  and  _387
REMARK  143  A    between atoms: _387  and  _388
REMARK  144  A    between atoms: _387  and  _390
REMARK  145  A    between atoms: _390  and  _391
REMARK  146  A    between atoms: _394  and  _396
REMARK  147  A    between atoms: _396  and  _397
REMARK  148  A    between atoms: _396  and  _399
REMARK  149  A    between atoms: _399  and  _400
REMARK  150  A    between atoms: _400  and  _401
REMARK  151  A    between atoms: _404  and  _406
REMARK  152  A    between atoms: _406  and  _407
REMARK  153  A    between atoms: _406  and  _409
REMARK  154  A    between atoms: _409  and  _410
REMARK  155  A    between atoms: _410  and  _411
REMARK  156  A    between atoms: _411  and  _412
REMARK  157  A    between atoms: _421  and  _423
REMARK  158  A    between atoms: _423  and  _424
REMARK  159  A    between atoms: _426  and  _428
REMARK  160  A    between atoms: _428  and  _429
REMARK  161  A    between atoms: _428  and  _431
REMARK  162  A    between atoms: _431  and  _432
REMARK  163  A    between atoms: _435  and  _437
REMARK  164  A    between atoms: _437  and  _438
REMARK                            x       y       z     vdW  Elec       q    Type
REMARK                         _______ _______ _______ _____ _____    ______ ____
ROOT
ATOM      1  CA  ARG A   3      24.855  68.615   7.591  0.00  0.00    +0.149 C 
ENDROOT
BRANCH   1   4
ATOM      2  C   GLU A   2      22.707  69.740   7.850  0.00  0.00    +0.241 C 
ATOM      3  O   GLU A   2      22.233  68.782   8.466  0.00  0.00    -0.273 OA
ATOM      4  N   ARG A   3      23.929  69.742   7.325  0.00  0.00    -0.297 N 
ATOM      5  H   ARG A   3      24.236  70.536   6.727  0.00  0.00    +0.150 HD
BRANCH   2   6
ATOM      6  CA  GLU A   2      21.907  71.012   7.653  0.00  0.00    +0.149 C 
BRANCH   6   8
ATOM      7  C   ASP A   1      21.984  71.187   5.234  0.00  0.00    +0.239 C 
ATOM      8  N   GLU A   2      22.230  71.725   6.412  0.00  0.00    -0.297 N 
ATOM      9  H   GLU A   2      22.660  72.671   6.463  0.00  0.00    +0.150 HD
ATOM     10  O   ASP A   1      21.679  70.011   5.083  0.00  0.00    -0.274 OA
BRANCH   7  11
ATOM     11  CA  ASP A   1      22.047  72.164   4.049  0.00  0.00    +0.156 C 
BRANCH  11  12
ATOM     12  N   ASP A   1      22.900  73.330   4.351  0.00  0.00    -0.238 NA
ATOM     13  H   ASP A   1      23.931  73.211   4.418  0.00  0.00    +0.142 HD
ENDBRANCH  11  12
BRANCH  11  14
ATOM     14  CB  ASP A   1      22.497  71.485   2.769  0.00  0.00    +0.140 C 
BRANCH  14  15
ATOM     15  CG  ASP A   1      23.988  71.154   2.772  0.00  0.00    +0.367 C 
ATOM     16  OD2 ASP A   1      24.714  71.513   3.697  0.00  0.00    -0.246 OA
ATOM     17  OD1 ASP A   1      24.356  70.529   1.789  0.00  0.00    -0.246 OA
ENDBRANCH  14  15
ENDBRANCH  11  14
ENDBRANCH   7  11
ENDBRANCH   6   8
BRANCH   6  18
ATOM     18  CB  GLU A   2      20.411  70.684   7.763  0.00  0.00    +0.041 C 
BRANCH  18  19
ATOM     19  CG  GLU A   2      19.486  71.850   7.588  0.00  0.00    +0.116 C 
BRANCH  19  20
ATOM     20  CD  GLU A   2      18.026  71.400   7.558  0.00  0.00    +0.365 C 
ATOM     21  OE2 GLU A   2      17.165  72.170   8.020  0.00  0.00    -0.246 OA
ATOM     22  OE1 GLU A   2      17.730  70.270   7.090  0.00  0.00    -0.246 OA
ENDBRANCH  19  20
ENDBRANCH  18  19
ENDBRANCH   6  18
ENDBRANCH   2   6
ENDBRANCH   1   4
BRANCH   1  23
ATOM     23  C   ARG A   3      26.090  68.992   8.378  0.00  0.00    +0.241 C 
ATOM     24  N   GLY A   4      26.057  70.138   9.071  0.00  0.00    -0.295 N 
ATOM     25  H   GLY A   4      25.285  70.814   8.902  0.00  0.00    +0.150 HD
ATOM     26  O   ARG A   3      27.055  68.205   8.413  0.00  0.00    -0.273 OA
BRANCH  24  27
ATOM     27  CA  GLY A   4      27.084  70.456  10.059  0.00  0.00    +0.176 C 
BRANCH  27  28
ATOM     28  C   GLY A   4      28.082  71.510   9.617  0.00  0.00    +0.243 C 
ATOM     29  O   GLY A   4      28.815  72.022  10.448  0.00  0.00    -0.273 OA
ATOM     30  N   LEU A   5      28.073  71.842   8.327  0.00  0.00    -0.297 N 
ATOM     31  H   LEU A   5      27.397  71.372   7.692  0.00  0.00    +0.150 HD
BRANCH  30  32
ATOM     32  CA  LEU A   5      28.990  72.855   7.768  0.00  0.00    +0.149 C 
BRANCH  32  33
ATOM     33  C   LEU A   5      28.677  74.246   8.302  0.00  0.00    +0.241 C 
ATOM     34  O   LEU A   5      29.603  75.056   8.526  0.00  0.00    -0.273 OA
ATOM     35  N   GLY A   6      27.385  74.531   8.453  0.00  0.00    -0.296 N 
ATOM     36  H   GLY A   6      26.665  73.816   8.223  0.00  0.00    +0.150 HD
BRANCH  35  37
ATOM     37  CA  GLY A   6      26.972  75.863   8.947  0.00  0.00    +0.163 C 
BRANCH  37  38
ATOM     38  C   GLY A   6      27.319  77.044   8.035  0.00  0.00    +0.229 C 
ATOM     39  O   GLY A   6      27.565  78.161   8.503  0.00  0.00    -0.286 OA
ENDBRANCH  37  38
ENDBRANCH  35  37
ENDBRANCH  32  33
BRANCH  32  40
ATOM     40  CB  LEU A   5      28.991  72.855   6.235  0.00  0.00    +0.029 C 
BRANCH  40  41
ATOM     41  CG  LEU A   5      29.935  73.797   5.506  0.00  0.00    +0.002 C 
ATOM     42  CD2 LEU A   5      31.397  73.569   6.010  0.00  0.00    +0.000 C 
ATOM     43  CD1 LEU A   5      29.828  73.614   3.998  0.00  0.00    +0.000 C 
ENDBRANCH  40  41
ENDBRANCH  32  40
ENDBRANCH  30  32
ENDBRANCH  27  28
ENDBRANCH  24  27
ENDBRANCH   1  23
BRANCH   1  44
ATOM     44  CB  ARG A   3      25.220  67.898   6.259  0.00  0.00    +0.033 C 
BRANCH  44  45
ATOM     45  CG  ARG A   3      23.963  67.385   5.433  0.00  0.00    +0.045 C 
BRANCH  45  46
ATOM     46  CD  ARG A   3      23.210  66.365   6.321  0.00  0.00    +0.174 C 
BRANCH  46  47
ATOM     47  NE  ARG A   3      22.172  65.602   5.643  0.00  0.00    -0.265 N 
ATOM     48  CZ  ARG A   3      20.952  66.087   5.385  0.00  0.00    +0.342 C 
ATOM     49  NH2 ARG A   3      20.689  67.375   5.628  0.00  0.00    -0.292 N 
ATOM     50 HH21 ARG A   3      21.430  67.993   6.015  0.00  0.00    +0.255 HD
ATOM     51 HH22 ARG A   3      19.743  67.759   5.430  0.00  0.00    +0.255 HD
ATOM     52  NH1 ARG A   3      20.013  65.310   4.854  0.00  0.00    -0.292 N 
ATOM     53 HH11 ARG A   3      19.068  65.697   4.657  0.00  0.00    +0.255 HD
ATOM     54 HH12 ARG A   3      20.224  64.315   4.635  0.00  0.00    +0.255 HD
ATOM     55  HE  ARG A   3      22.390  64.630   5.344  0.00  0.00    +0.259 HD
ENDBRANCH  46  47
ENDBRANCH  45  46
ENDBRANCH  44  45
ENDBRANCH   1  44
TORSDOF 23
REMARK  Name = ../refined-set-2016/3d52/3d52_pocket.pdb
REMARK  164 active torsions:
REMARK  status: ('A' for Active; 'I' for Inactive)
REMARK    1  A    between atoms: _1  and  _3
REMARK    2  A    between atoms: _14  and  _17
REMARK    3  A    between atoms: _17  and  _18
REMARK    4  A    between atoms: _25  and  _26
REMARK    5  A    between atoms: _33  and  _34
REMARK    6  A    between atoms: _39  and  _41
REMARK    7  A    between atoms: _41  and  _42
REMARK    8  A    between atoms: _44  and  _46
REMARK    9  A    between atoms: _46  and  _47
REMARK   10  A    between atoms: _46  and  _49
REMARK   11  A    between atoms: _49  and  _50
REMARK   12  A    between atoms: _60  and  _62
REMARK   13  A    between atoms: _62  and  _63
REMARK   14  A    between atoms: _62  and  _65
REMARK   15  A    between atoms: _65  and  _66
REMARK   16  A    between atoms: _69  and  _71
REMARK   17  A    between atoms: _71  and  _72
REMARK   18  A    between atoms: _71  and  _74
REMARK   19  A    between atoms: _74  and  _75
REMARK   20  A    between atoms: _75  and  _76
REMARK   21  A    between atoms: _81  and  _83
REMARK   22  A    between atoms: _83  and  _84
REMARK   23  A    between atoms: _83  and  _86
REMARK   24  A    between atoms: _86  and  _87
REMARK   25  A    between atoms: _92  and  _93
REMARK   26  A    between atoms: _95  and  _97
REMARK   27  A    between atoms: _97  and  _98
REMARK   28  A    between atoms: _97  and  _100
REMARK   29  A    between atoms: _100  and  _101
REMARK   30  A    between atoms: _104  and  _106
REMARK   31  A    between atoms: _106  and  _107
REMARK   32  A    between atoms: _106  and  _109
REMARK   33  A    between atoms: _109  and  _110
REMARK   34  A    between atoms: _110  and  _111
REMARK   35  A    between atoms: _113  and  _115
REMARK   36  A    between atoms: _115  and  _116
REMARK   37  A    between atoms: _115  and  _118
REMARK   38  A    between atoms: _118  and  _119
REMARK   39  A    between atoms: _122  and  _124
REMARK   40  A    between atoms: _124  and  _125
REMARK   41  A    between atoms: _124  and  _127
REMARK   42  A    between atoms: _127  and  _128
REMARK   43  A    between atoms: _128  and  _130
REMARK   44  A    between atoms: _130  and  ZN_440
REMARK   45  A    between atoms: _132  and  _133
REMARK   46  A    between atoms: _138  and  _140
REMARK   47  A    between atoms: _140  and  _141
REMARK   48  A    between atoms: _140  and  _143
REMARK   49  A    between atoms: _143  and  _144
REMARK   50  A    between atoms: _150  and  _152
REMARK   51  A    between atoms: _152  and  _153
REMARK   52  A    between atoms: _152  and  _155
REMARK   53  A    between atoms: _155  and  _156
REMARK   54  A    between atoms: _156  and  _157
REMARK   55  A    between atoms: _157  and  _158
REMARK   56  A    between atoms: _167  and  _169
REMARK   57  A    between atoms: _169  and  _170
REMARK   58  A    between atoms: _169  and  _172
REMARK   59  A    between atoms: _172  and  _173
REMARK   60  A    between atoms: _178  and  _179
REMARK   61  A    between atoms: _181  and  _183
REMARK   62  A    between atoms: _183  and  _184
REMARK   63  A    between atoms: _183  and  _186
REMARK   64  A    between atoms: _186  and  _187
REMARK   65  A    between atoms: _189  and  _191
REMARK   66  A    between atoms: _191  and  _192
REMARK   67  A    between atoms: _191  and  _194
REMARK   68  A    between atoms: _194  and  _195
REMARK   69  A    between atoms: _200  and  _201
REMARK   70  A    between atoms: _203  and  _205
REMARK   71  A    between atoms: _205  and  _206
REMARK   72  A    between atoms: _205  and  _208
REMARK   73  A    between atoms: _208  and  _209
REMARK   74  A    between atoms: _209  and  _210
REMARK   75  A    between atoms: _210  and  _211
REMARK   76  A    between atoms: _211  and  _212
REMARK   77  A    between atoms: _216  and  _218
REMARK   78  A    between atoms: _218  and  _219
REMARK   79  A    between atoms: _218  and  _221
REMARK   80  A    between atoms: _221  and  _222
REMARK   81  A    between atoms: _225  and  _227
REMARK   82  A    between atoms: _227  and  _228
REMARK   83  A    between atoms: _227  and  _230
REMARK   84  A    between atoms: _230  and  _231
REMARK   85  A    between atoms: _234  and  _236
REMARK   86  A    between atoms: _236  and  _237
REMARK   87  A    between atoms: _236  and  _239
REMARK   88  A    between atoms: _239  and  _240
REMARK   89  A    between atoms: _243  and  _245
REMARK   90  A    between atoms: _245  and  _246
REMARK   91  A    between atoms: _245  and  _248
REMARK   92  A    between atoms: _248  and  _249
REMARK   93  A    between atoms: _255  and  _257
REMARK   94  A    between atoms: _257  and  _258
REMARK   95  A    between atoms: _257  and  _260
REMARK   96  A    between atoms: _260  and  _261
REMARK   97  A    between atoms: _261  and  _262
REMARK   98  A    between atoms: _262  and  _263
REMARK   99  A    between atoms: _272  and  _274
REMARK  100  A    between atoms: _274  and  _275
REMARK  101  A    between atoms: _274  and  _277
REMARK  102  A    between atoms: _277  and  _278
REMARK  103  A    between atoms: _283  and  _284
REMARK  104  A    between atoms: _286  and  _288
REMARK  105  A    between atoms: _288  and  _289
REMARK  106  A    between atoms: _288  and  _291
REMARK  107  A    between atoms: _291  and  _292
REMARK  108  A    between atoms: _295  and  _297
REMARK  109  A    between atoms: _297  and  _298
REMARK  110  A    between atoms: _297  and  _300
REMARK  111  A    between atoms: _300  and  _301
REMARK  112  A    between atoms: _311  and  _313
REMARK  113  A    between atoms: _313  and  _314
REMARK  114  A    between atoms: _313  and  _316
REMARK  115  A    between atoms: _316  and  _317
REMARK  116  A    between atoms: _322  and  _324
REMARK  117  A    between atoms: _324  and  _325
REMARK  118  A    between atoms: _324  and  _327
REMARK  119  A    between atoms: _327  and  _328
REMARK  120  A    between atoms: _332  and  ZN_440
REMARK  121  A    between atoms: _333  and  _335
REMARK  122  A    between atoms: _335  and  _336
REMARK  123  A    between atoms: _335  and  _338
REMARK  124  A    between atoms: _338  and  _339
REMARK  125  A    between atoms: _342  and  _344
REMARK  126  A    between atoms: _344  and  _345
REMARK  127  A    between atoms: _347  and  _349
REMARK  128  A    between atoms: _349  and  _350
REMARK  129  A    between atoms: _349  and  _352
REMARK  130  A    between atoms: _352  and  _353
REMARK  131  A    between atoms: _356  and  _358
REMARK  132  A    between atoms: _358  and  _359
REMARK  133  A    between atoms: _358  and  _361
REMARK  134  A    between atoms: _361  and  _362
REMARK  135  A    between atoms: _365  and  _367
REMARK  136  A    between atoms: _367  and  _368
REMARK  137  A    between atoms: _371  and  _373
REMARK  138  A    between atoms: _373  and  _374
REMARK  139  A    between atoms: _373  and  _376
REMARK  140  A    between atoms: _376  and  _377
REMARK  141  A    between atoms: _382  and  _383
REMARK  142  A    between atoms: _385  and  _387
REMARK  143  A    between atoms: _387  and  _388
REMARK  144  A    between atoms: _387  and  _390
REMARK  145  A    between atoms: _390  and  _391
REMARK  146  A    between atoms: _394  and  _396
REMARK  147  A    between atoms: _396  and  _397
REMARK  148  A    between atoms: _396  and  _399
REMARK  149  A    between atoms: _399  and  _400
REMARK  150  A    between atoms: _400  and  _401
REMARK  151  A    between atoms: _404  and  _406
REMARK  152  A    between atoms: _406  and  _407
REMARK  153  A    between atoms: _406  and  _409
REMARK  154  A    between atoms: _409  and  _410
REMARK  155  A    between atoms: _410  and  _411
REMARK  156  A    between atoms: _411  and  _412
REMARK  157  A    between atoms: _421  and  _423
REMARK  158  A    between atoms: _423  and  _424
REMARK  159  A    between atoms: _426  and  _428
REMARK  160  A    between atoms: _428  and  _429
REMARK  161  A    between atoms: _428  and  _431
REMARK  162  A    between atoms: _431  and  _432
REMARK  163  A    between atoms: _435  and  _437
REMARK  164  A    between atoms: _437  and  _438
REMARK                            x       y       z     vdW  Elec       q    Type
REMARK                         _______ _______ _______ _____ _____    ______ ____
ROOT
ATOM      1  O   HOH     1      27.175  57.911   8.690  0.00  0.00    +0.000 OA
ENDROOT
TORSDOF 0
REMARK  Name = ../refined-set-2016/3d52/3d52_pocket.pdb
REMARK  164 active torsions:
REMARK  status: ('A' for Active; 'I' for Inactive)
REMARK    1  A    between atoms: _1  and  _3
REMARK    2  A    between atoms: _14  and  _17
REMARK    3  A    between atoms: _17  and  _18
REMARK    4  A    between atoms: _25  and  _26
REMARK    5  A    between atoms: _33  and  _34
REMARK    6  A    between atoms: _39  and  _41
REMARK    7  A    between atoms: _41  and  _42
REMARK    8  A    between atoms: _44  and  _46
REMARK    9  A    between atoms: _46  and  _47
REMARK   10  A    between atoms: _46  and  _49
REMARK   11  A    between atoms: _49  and  _50
REMARK   12  A    between atoms: _60  and  _62
REMARK   13  A    between atoms: _62  and  _63
REMARK   14  A    between atoms: _62  and  _65
REMARK   15  A    between atoms: _65  and  _66
REMARK   16  A    between atoms: _69  and  _71
REMARK   17  A    between atoms: _71  and  _72
REMARK   18  A    between atoms: _71  and  _74
REMARK   19  A    between atoms: _74  and  _75
REMARK   20  A    between atoms: _75  and  _76
REMARK   21  A    between atoms: _81  and  _83
REMARK   22  A    between atoms: _83  and  _84
REMARK   23  A    between atoms: _83  and  _86
REMARK   24  A    between atoms: _86  and  _87
REMARK   25  A    between atoms: _92  and  _93
REMARK   26  A    between atoms: _95  and  _97
REMARK   27  A    between atoms: _97  and  _98
REMARK   28  A    between atoms: _97  and  _100
REMARK   29  A    between atoms: _100  and  _101
REMARK   30  A    between atoms: _104  and  _106
REMARK   31  A    between atoms: _106  and  _107
REMARK   32  A    between atoms: _106  and  _109
REMARK   33  A    between atoms: _109  and  _110
REMARK   34  A    between atoms: _110  and  _111
REMARK   35  A    between atoms: _113  and  _115
REMARK   36  A    between atoms: _115  and  _116
REMARK   37  A    between atoms: _115  and  _118
REMARK   38  A    between atoms: _118  and  _119
REMARK   39  A    between atoms: _122  and  _124
REMARK   40  A    between atoms: _124  and  _125
REMARK   41  A    between atoms: _124  and  _127
REMARK   42  A    between atoms: _127  and  _128
REMARK   43  A    between atoms: _128  and  _130
REMARK   44  A    between atoms: _130  and  ZN_440
REMARK   45  A    between atoms: _132  and  _133
REMARK   46  A    between atoms: _138  and  _140
REMARK   47  A    between atoms: _140  and  _141
REMARK   48  A    between atoms: _140  and  _143
REMARK   49  A    between atoms: _143  and  _144
REMARK   50  A    between atoms: _150  and  _152
REMARK   51  A    between atoms: _152  and  _153
REMARK   52  A    between atoms: _152  and  _155
REMARK   53  A    between atoms: _155  and  _156
REMARK   54  A    between atoms: _156  and  _157
REMARK   55  A    between atoms: _157  and  _158
REMARK   56  A    between atoms: _167  and  _169
REMARK   57  A    between atoms: _169  and  _170
REMARK   58  A    between atoms: _169  and  _172
REMARK   59  A    between atoms: _172  and  _173
REMARK   60  A    between atoms: _178  and  _179
REMARK   61  A    between atoms: _181  and  _183
REMARK   62  A    between atoms: _183  and  _184
REMARK   63  A    between atoms: _183  and  _186
REMARK   64  A    between atoms: _186  and  _187
REMARK   65  A    between atoms: _189  and  _191
REMARK   66  A    between atoms: _191  and  _192
REMARK   67  A    between atoms: _191  and  _194
REMARK   68  A    between atoms: _194  and  _195
REMARK   69  A    between atoms: _200  and  _201
REMARK   70  A    between atoms: _203  and  _205
REMARK   71  A    between atoms: _205  and  _206
REMARK   72  A    between atoms: _205  and  _208
REMARK   73  A    between atoms: _208  and  _209
REMARK   74  A    between atoms: _209  and  _210
REMARK   75  A    between atoms: _210  and  _211
REMARK   76  A    between atoms: _211  and  _212
REMARK   77  A    between atoms: _216  and  _218
REMARK   78  A    between atoms: _218  and  _219
REMARK   79  A    between atoms: _218  and  _221
REMARK   80  A    between atoms: _221  and  _222
REMARK   81  A    between atoms: _225  and  _227
REMARK   82  A    between atoms: _227  and  _228
REMARK   83  A    between atoms: _227  and  _230
REMARK   84  A    between atoms: _230  and  _231
REMARK   85  A    between atoms: _234  and  _236
REMARK   86  A    between atoms: _236  and  _237
REMARK   87  A    between atoms: _236  and  _239
REMARK   88  A    between atoms: _239  and  _240
REMARK   89  A    between atoms: _243  and  _245
REMARK   90  A    between atoms: _245  and  _246
REMARK   91  A    between atoms: _245  and  _248
REMARK   92  A    between atoms: _248  and  _249
REMARK   93  A    between atoms: _255  and  _257
REMARK   94  A    between atoms: _257  and  _258
REMARK   95  A    between atoms: _257  and  _260
REMARK   96  A    between atoms: _260  and  _261
REMARK   97  A    between atoms: _261  and  _262
REMARK   98  A    between atoms: _262  and  _263
REMARK   99  A    between atoms: _272  and  _274
REMARK  100  A    between atoms: _274  and  _275
REMARK  101  A    between atoms: _274  and  _277
REMARK  102  A    between atoms: _277  and  _278
REMARK  103  A    between atoms: _283  and  _284
REMARK  104  A    between atoms: _286  and  _288
REMARK  105  A    between atoms: _288  and  _289
REMARK  106  A    between atoms: _288  and  _291
REMARK  107  A    between atoms: _291  and  _292
REMARK  108  A    between atoms: _295  and  _297
REMARK  109  A    between atoms: _297  and  _298
REMARK  110  A    between atoms: _297  and  _300
REMARK  111  A    between atoms: _300  and  _301
REMARK  112  A    between atoms: _311  and  _313
REMARK  113  A    between atoms: _313  and  _314
REMARK  114  A    between atoms: _313  and  _316
REMARK  115  A    between atoms: _316  and  _317
REMARK  116  A    between atoms: _322  and  _324
REMARK  117  A    between atoms: _324  and  _325
REMARK  118  A    between atoms: _324  and  _327
REMARK  119  A    between atoms: _327  and  _328
REMARK  120  A    between atoms: _332  and  ZN_440
REMARK  121  A    between atoms: _333  and  _335
REMARK  122  A    between atoms: _335  and  _336
REMARK  123  A    between atoms: _335  and  _338
REMARK  124  A    between atoms: _338  and  _339
REMARK  125  A    between atoms: _342  and  _344
REMARK  126  A    between atoms: _344  and  _345
REMARK  127  A    between atoms: _347  and  _349
REMARK  128  A    between atoms: _349  and  _350
REMARK  129  A    between atoms: _349  and  _352
REMARK  130  A    between atoms: _352  and  _353
REMARK  131  A    between atoms: _356  and  _358
REMARK  132  A    between atoms: _358  and  _359
REMARK  133  A    between atoms: _358  and  _361
REMARK  134  A    between atoms: _361  and  _362
REMARK  135  A    between atoms: _365  and  _367
REMARK  136  A    between atoms: _367  and  _368
REMARK  137  A    between atoms: _371  and  _373
REMARK  138  A    between atoms: _373  and  _374
REMARK  139  A    between atoms: _373  and  _376
REMARK  140  A    between atoms: _376  and  _377
REMARK  141  A    between atoms: _382  and  _383
REMARK  142  A    between atoms: _385  and  _387
REMARK  143  A    between atoms: _387  and  _388
REMARK  144  A    between atoms: _387  and  _390
REMARK  145  A    between atoms: _390  and  _391
REMARK  146  A    between atoms: _394  and  _396
REMARK  147  A    between atoms: _396  and  _397
REMARK  148  A    between atoms: _396  and  _399
REMARK  149  A    between atoms: _399  and  _400
REMARK  150  A    between atoms: _400  and  _401
REMARK  151  A    between atoms: _404  and  _406
REMARK  152  A    between atoms: _406  and  _407
REMARK  153  A    between atoms: _406  and  _409
REMARK  154  A    between atoms: _409  and  _410
REMARK  155  A    between atoms: _410  and  _411
REMARK  156  A    between atoms: _411  and  _412
REMARK  157  A    between atoms: _421  and  _423
REMARK  158  A    between atoms: _423  and  _424
REMARK  159  A    between atoms: _426  and  _428
REMARK  160  A    between atoms: _428  and  _429
REMARK  161  A    between atoms: _428  and  _431
REMARK  162  A    between atoms: _431  and  _432
REMARK  163  A    between atoms: _435  and  _437
REMARK  164  A    between atoms: _437  and  _438
REMARK                            x       y       z     vdW  Elec       q    Type
REMARK                         _______ _______ _______ _____ _____    ______ ____
ROOT
ATOM      1  O   HOH     1      26.872  60.105  10.710  0.00  0.00    +0.000 OA
ENDROOT
TORSDOF 0
REMARK  Name = ../refined-set-2016/3d52/3d52_pocket.pdb
REMARK  164 active torsions:
REMARK  status: ('A' for Active; 'I' for Inactive)
REMARK    1  A    between atoms: _1  and  _3
REMARK    2  A    between atoms: _14  and  _17
REMARK    3  A    between atoms: _17  and  _18
REMARK    4  A    between atoms: _25  and  _26
REMARK    5  A    between atoms: _33  and  _34
REMARK    6  A    between atoms: _39  and  _41
REMARK    7  A    between atoms: _41  and  _42
REMARK    8  A    between atoms: _44  and  _46
REMARK    9  A    between atoms: _46  and  _47
REMARK   10  A    between atoms: _46  and  _49
REMARK   11  A    between atoms: _49  and  _50
REMARK   12  A    between atoms: _60  and  _62
REMARK   13  A    between atoms: _62  and  _63
REMARK   14  A    between atoms: _62  and  _65
REMARK   15  A    between atoms: _65  and  _66
REMARK   16  A    between atoms: _69  and  _71
REMARK   17  A    between atoms: _71  and  _72
REMARK   18  A    between atoms: _71  and  _74
REMARK   19  A    between atoms: _74  and  _75
REMARK   20  A    between atoms: _75  and  _76
REMARK   21  A    between atoms: _81  and  _83
REMARK   22  A    between atoms: _83  and  _84
REMARK   23  A    between atoms: _83  and  _86
REMARK   24  A    between atoms: _86  and  _87
REMARK   25  A    between atoms: _92  and  _93
REMARK   26  A    between atoms: _95  and  _97
REMARK   27  A    between atoms: _97  and  _98
REMARK   28  A    between atoms: _97  and  _100
REMARK   29  A    between atoms: _100  and  _101
REMARK   30  A    between atoms: _104  and  _106
REMARK   31  A    between atoms: _106  and  _107
REMARK   32  A    between atoms: _106  and  _109
REMARK   33  A    between atoms: _109  and  _110
REMARK   34  A    between atoms: _110  and  _111
REMARK   35  A    between atoms: _113  and  _115
REMARK   36  A    between atoms: _115  and  _116
REMARK   37  A    between atoms: _115  and  _118
REMARK   38  A    between atoms: _118  and  _119
REMARK   39  A    between atoms: _122  and  _124
REMARK   40  A    between atoms: _124  and  _125
REMARK   41  A    between atoms: _124  and  _127
REMARK   42  A    between atoms: _127  and  _128
REMARK   43  A    between atoms: _128  and  _130
REMARK   44  A    between atoms: _130  and  ZN_440
REMARK   45  A    between atoms: _132  and  _133
REMARK   46  A    between atoms: _138  and  _140
REMARK   47  A    between atoms: _140  and  _141
REMARK   48  A    between atoms: _140  and  _143
REMARK   49  A    between atoms: _143  and  _144
REMARK   50  A    between atoms: _150  and  _152
REMARK   51  A    between atoms: _152  and  _153
REMARK   52  A    between atoms: _152  and  _155
REMARK   53  A    between atoms: _155  and  _156
REMARK   54  A    between atoms: _156  and  _157
REMARK   55  A    between atoms: _157  and  _158
REMARK   56  A    between atoms: _167  and  _169
REMARK   57  A    between atoms: _169  and  _170
REMARK   58  A    between atoms: _169  and  _172
REMARK   59  A    between atoms: _172  and  _173
REMARK   60  A    between atoms: _178  and  _179
REMARK   61  A    between atoms: _181  and  _183
REMARK   62  A    between atoms: _183  and  _184
REMARK   63  A    between atoms: _183  and  _186
REMARK   64  A    between atoms: _186  and  _187
REMARK   65  A    between atoms: _189  and  _191
REMARK   66  A    between atoms: _191  and  _192
REMARK   67  A    between atoms: _191  and  _194
REMARK   68  A    between atoms: _194  and  _195
REMARK   69  A    between atoms: _200  and  _201
REMARK   70  A    between atoms: _203  and  _205
REMARK   71  A    between atoms: _205  and  _206
REMARK   72  A    between atoms: _205  and  _208
REMARK   73  A    between atoms: _208  and  _209
REMARK   74  A    between atoms: _209  and  _210
REMARK   75  A    between atoms: _210  and  _211
REMARK   76  A    between atoms: _211  and  _212
REMARK   77  A    between atoms: _216  and  _218
REMARK   78  A    between atoms: _218  and  _219
REMARK   79  A    between atoms: _218  and  _221
REMARK   80  A    between atoms: _221  and  _222
REMARK   81  A    between atoms: _225  and  _227
REMARK   82  A    between atoms: _227  and  _228
REMARK   83  A    between atoms: _227  and  _230
REMARK   84  A    between atoms: _230  and  _231
REMARK   85  A    between atoms: _234  and  _236
REMARK   86  A    between atoms: _236  and  _237
REMARK   87  A    between atoms: _236  and  _239
REMARK   88  A    between atoms: _239  and  _240
REMARK   89  A    between atoms: _243  and  _245
REMARK   90  A    between atoms: _245  and  _246
REMARK   91  A    between atoms: _245  and  _248
REMARK   92  A    between atoms: _248  and  _249
REMARK   93  A    between atoms: _255  and  _257
REMARK   94  A    between atoms: _257  and  _258
REMARK   95  A    between atoms: _257  and  _260
REMARK   96  A    between atoms: _260  and  _261
REMARK   97  A    between atoms: _261  and  _262
REMARK   98  A    between atoms: _262  and  _263
REMARK   99  A    between atoms: _272  and  _274
REMARK  100  A    between atoms: _274  and  _275
REMARK  101  A    between atoms: _274  and  _277
REMARK  102  A    between atoms: _277  and  _278
REMARK  103  A    between atoms: _283  and  _284
REMARK  104  A    between atoms: _286  and  _288
REMARK  105  A    between atoms: _288  and  _289
REMARK  106  A    between atoms: _288  and  _291
REMARK  107  A    between atoms: _291  and  _292
REMARK  108  A    between atoms: _295  and  _297
REMARK  109  A    between atoms: _297  and  _298
REMARK  110  A    between atoms: _297  and  _300
REMARK  111  A    between atoms: _300  and  _301
REMARK  112  A    between atoms: _311  and  _313
REMARK  113  A    between atoms: _313  and  _314
REMARK  114  A    between atoms: _313  and  _316
REMARK  115  A    between atoms: _316  and  _317
REMARK  116  A    between atoms: _322  and  _324
REMARK  117  A    between atoms: _324  and  _325
REMARK  118  A    between atoms: _324  and  _327
REMARK  119  A    between atoms: _327  and  _328
REMARK  120  A    between atoms: _332  and  ZN_440
REMARK  121  A    between atoms: _333  and  _335
REMARK  122  A    between atoms: _335  and  _336
REMARK  123  A    between atoms: _335  and  _338
REMARK  124  A    between atoms: _338  and  _339
REMARK  125  A    between atoms: _342  and  _344
REMARK  126  A    between atoms: _344  and  _345
REMARK  127  A    between atoms: _347  and  _349
REMARK  128  A    between atoms: _349  and  _350
REMARK  129  A    between atoms: _349  and  _352
REMARK  130  A    between atoms: _352  and  _353
REMARK  131  A    between atoms: _356  and  _358
REMARK  132  A    between atoms: _358  and  _359
REMARK  133  A    between atoms: _358  and  _361
REMARK  134  A    between atoms: _361  and  _362
REMARK  135  A    between atoms: _365  and  _367
REMARK  136  A    between atoms: _367  and  _368
REMARK  137  A    between atoms: _371  and  _373
REMARK  138  A    between atoms: _373  and  _374
REMARK  139  A    between atoms: _373  and  _376
REMARK  140  A    between atoms: _376  and  _377
REMARK  141  A    between atoms: _382  and  _383
REMARK  142  A    between atoms: _385  and  _387
REMARK  143  A    between atoms: _387  and  _388
REMARK  144  A    between atoms: _387  and  _390
REMARK  145  A    between atoms: _390  and  _391
REMARK  146  A    between atoms: _394  and  _396
REMARK  147  A    between atoms: _396  and  _397
REMARK  148  A    between atoms: _396  and  _399
REMARK  149  A    between atoms: _399  and  _400
REMARK  150  A    between atoms: _400  and  _401
REMARK  151  A    between atoms: _404  and  _406
REMARK  152  A    between atoms: _406  and  _407
REMARK  153  A    between atoms: _406  and  _409
REMARK  154  A    between atoms: _409  and  _410
REMARK  155  A    between atoms: _410  and  _411
REMARK  156  A    between atoms: _411  and  _412
REMARK  157  A    between atoms: _421  and  _423
REMARK  158  A    between atoms: _423  and  _424
REMARK  159  A    between atoms: _426  and  _428
REMARK  160  A    between atoms: _428  and  _429
REMARK  161  A    between atoms: _428  and  _431
REMARK  162  A    between atoms: _431  and  _432
REMARK  163  A    between atoms: _435  and  _437
REMARK  164  A    between atoms: _437  and  _438
REMARK                            x       y       z     vdW  Elec       q    Type
REMARK                         _______ _______ _______ _____ _____    ______ ____
ROOT
ATOM      1  O   HOH     1      24.551  60.143   9.510  0.00  0.00    +0.000 OA
ENDROOT
TORSDOF 0
REMARK  Name = ../refined-set-2016/3d52/3d52_pocket.pdb
REMARK  164 active torsions:
REMARK  status: ('A' for Active; 'I' for Inactive)
REMARK    1  A    between atoms: _1  and  _3
REMARK    2  A    between atoms: _14  and  _17
REMARK    3  A    between atoms: _17  and  _18
REMARK    4  A    between atoms: _25  and  _26
REMARK    5  A    between atoms: _33  and  _34
REMARK    6  A    between atoms: _39  and  _41
REMARK    7  A    between atoms: _41  and  _42
REMARK    8  A    between atoms: _44  and  _46
REMARK    9  A    between atoms: _46  and  _47
REMARK   10  A    between atoms: _46  and  _49
REMARK   11  A    between atoms: _49  and  _50
REMARK   12  A    between atoms: _60  and  _62
REMARK   13  A    between atoms: _62  and  _63
REMARK   14  A    between atoms: _62  and  _65
REMARK   15  A    between atoms: _65  and  _66
REMARK   16  A    between atoms: _69  and  _71
REMARK   17  A    between atoms: _71  and  _72
REMARK   18  A    between atoms: _71  and  _74
REMARK   19  A    between atoms: _74  and  _75
REMARK   20  A    between atoms: _75  and  _76
REMARK   21  A    between atoms: _81  and  _83
REMARK   22  A    between atoms: _83  and  _84
REMARK   23  A    between atoms: _83  and  _86
REMARK   24  A    between atoms: _86  and  _87
REMARK   25  A    between atoms: _92  and  _93
REMARK   26  A    between atoms: _95  and  _97
REMARK   27  A    between atoms: _97  and  _98
REMARK   28  A    between atoms: _97  and  _100
REMARK   29  A    between atoms: _100  and  _101
REMARK   30  A    between atoms: _104  and  _106
REMARK   31  A    between atoms: _106  and  _107
REMARK   32  A    between atoms: _106  and  _109
REMARK   33  A    between atoms: _109  and  _110
REMARK   34  A    between atoms: _110  and  _111
REMARK   35  A    between atoms: _113  and  _115
REMARK   36  A    between atoms: _115  and  _116
REMARK   37  A    between atoms: _115  and  _118
REMARK   38  A    between atoms: _118  and  _119
REMARK   39  A    between atoms: _122  and  _124
REMARK   40  A    between atoms: _124  and  _125
REMARK   41  A    between atoms: _124  and  _127
REMARK   42  A    between atoms: _127  and  _128
REMARK   43  A    between atoms: _128  and  _130
REMARK   44  A    between atoms: _130  and  ZN_440
REMARK   45  A    between atoms: _132  and  _133
REMARK   46  A    between atoms: _138  and  _140
REMARK   47  A    between atoms: _140  and  _141
REMARK   48  A    between atoms: _140  and  _143
REMARK   49  A    between atoms: _143  and  _144
REMARK   50  A    between atoms: _150  and  _152
REMARK   51  A    between atoms: _152  and  _153
REMARK   52  A    between atoms: _152  and  _155
REMARK   53  A    between atoms: _155  and  _156
REMARK   54  A    between atoms: _156  and  _157
REMARK   55  A    between atoms: _157  and  _158
REMARK   56  A    between atoms: _167  and  _169
REMARK   57  A    between atoms: _169  and  _170
REMARK   58  A    between atoms: _169  and  _172
REMARK   59  A    between atoms: _172  and  _173
REMARK   60  A    between atoms: _178  and  _179
REMARK   61  A    between atoms: _181  and  _183
REMARK   62  A    between atoms: _183  and  _184
REMARK   63  A    between atoms: _183  and  _186
REMARK   64  A    between atoms: _186  and  _187
REMARK   65  A    between atoms: _189  and  _191
REMARK   66  A    between atoms: _191  and  _192
REMARK   67  A    between atoms: _191  and  _194
REMARK   68  A    between atoms: _194  and  _195
REMARK   69  A    between atoms: _200  and  _201
REMARK   70  A    between atoms: _203  and  _205
REMARK   71  A    between atoms: _205  and  _206
REMARK   72  A    between atoms: _205  and  _208
REMARK   73  A    between atoms: _208  and  _209
REMARK   74  A    between atoms: _209  and  _210
REMARK   75  A    between atoms: _210  and  _211
REMARK   76  A    between atoms: _211  and  _212
REMARK   77  A    between atoms: _216  and  _218
REMARK   78  A    between atoms: _218  and  _219
REMARK   79  A    between atoms: _218  and  _221
REMARK   80  A    between atoms: _221  and  _222
REMARK   81  A    between atoms: _225  and  _227
REMARK   82  A    between atoms: _227  and  _228
REMARK   83  A    between atoms: _227  and  _230
REMARK   84  A    between atoms: _230  and  _231
REMARK   85  A    between atoms: _234  and  _236
REMARK   86  A    between atoms: _236  and  _237
REMARK   87  A    between atoms: _236  and  _239
REMARK   88  A    between atoms: _239  and  _240
REMARK   89  A    between atoms: _243  and  _245
REMARK   90  A    between atoms: _245  and  _246
REMARK   91  A    between atoms: _245  and  _248
REMARK   92  A    between atoms: _248  and  _249
REMARK   93  A    between atoms: _255  and  _257
REMARK   94  A    between atoms: _257  and  _258
REMARK   95  A    between atoms: _257  and  _260
REMARK   96  A    between atoms: _260  and  _261
REMARK   97  A    between atoms: _261  and  _262
REMARK   98  A    between atoms: _262  and  _263
REMARK   99  A    between atoms: _272  and  _274
REMARK  100  A    between atoms: _274  and  _275
REMARK  101  A    between atoms: _274  and  _277
REMARK  102  A    between atoms: _277  and  _278
REMARK  103  A    between atoms: _283  and  _284
REMARK  104  A    between atoms: _286  and  _288
REMARK  105  A    between atoms: _288  and  _289
REMARK  106  A    between atoms: _288  and  _291
REMARK  107  A    between atoms: _291  and  _292
REMARK  108  A    between atoms: _295  and  _297
REMARK  109  A    between atoms: _297  and  _298
REMARK  110  A    between atoms: _297  and  _300
REMARK  111  A    between atoms: _300  and  _301
REMARK  112  A    between atoms: _311  and  _313
REMARK  113  A    between atoms: _313  and  _314
REMARK  114  A    between atoms: _313  and  _316
REMARK  115  A    between atoms: _316  and  _317
REMARK  116  A    between atoms: _322  and  _324
REMARK  117  A    between atoms: _324  and  _325
REMARK  118  A    between atoms: _324  and  _327
REMARK  119  A    between atoms: _327  and  _328
REMARK  120  A    between atoms: _332  and  ZN_440
REMARK  121  A    between atoms: _333  and  _335
REMARK  122  A    between atoms: _335  and  _336
REMARK  123  A    between atoms: _335  and  _338
REMARK  124  A    between atoms: _338  and  _339
REMARK  125  A    between atoms: _342  and  _344
REMARK  126  A    between atoms: _344  and  _345
REMARK  127  A    between atoms: _347  and  _349
REMARK  128  A    between atoms: _349  and  _350
REMARK  129  A    between atoms: _349  and  _352
REMARK  130  A    between atoms: _352  and  _353
REMARK  131  A    between atoms: _356  and  _358
REMARK  132  A    between atoms: _358  and  _359
REMARK  133  A    between atoms: _358  and  _361
REMARK  134  A    between atoms: _361  and  _362
REMARK  135  A    between atoms: _365  and  _367
REMARK  136  A    between atoms: _367  and  _368
REMARK  137  A    between atoms: _371  and  _373
REMARK  138  A    between atoms: _373  and  _374
REMARK  139  A    between atoms: _373  and  _376
REMARK  140  A    between atoms: _376  and  _377
REMARK  141  A    between atoms: _382  and  _383
REMARK  142  A    between atoms: _385  and  _387
REMARK  143  A    between atoms: _387  and  _388
REMARK  144  A    between atoms: _387  and  _390
REMARK  145  A    between atoms: _390  and  _391
REMARK  146  A    between atoms: _394  and  _396
REMARK  147  A    between atoms: _396  and  _397
REMARK  148  A    between atoms: _396  and  _399
REMARK  149  A    between atoms: _399  and  _400
REMARK  150  A    between atoms: _400  and  _401
REMARK  151  A    between atoms: _404  and  _406
REMARK  152  A    between atoms: _406  and  _407
REMARK  153  A    between atoms: _406  and  _409
REMARK  154  A    between atoms: _409  and  _410
REMARK  155  A    between atoms: _410  and  _411
REMARK  156  A    between atoms: _411  and  _412
REMARK  157  A    between atoms: _421  and  _423
REMARK  158  A    between atoms: _423  and  _424
REMARK  159  A    between atoms: _426  and  _428
REMARK  160  A    between atoms: _428  and  _429
REMARK  161  A    between atoms: _428  and  _431
REMARK  162  A    between atoms: _431  and  _432
REMARK  163  A    between atoms: _435  and  _437
REMARK  164  A    between atoms: _437  and  _438
REMARK                            x       y       z     vdW  Elec       q    Type
REMARK                         _______ _______ _______ _____ _____    ______ ____
ROOT
ATOM      1  O   HOH     1      23.955  62.220   7.837  0.00  0.00    +0.000 OA
ENDROOT
TORSDOF 0
REMARK  Name = ../refined-set-2016/3d52/3d52_pocket.pdb
REMARK  164 active torsions:
REMARK  status: ('A' for Active; 'I' for Inactive)
REMARK    1  A    between atoms: _1  and  _3
REMARK    2  A    between atoms: _14  and  _17
REMARK    3  A    between atoms: _17  and  _18
REMARK    4  A    between atoms: _25  and  _26
REMARK    5  A    between atoms: _33  and  _34
REMARK    6  A    between atoms: _39  and  _41
REMARK    7  A    between atoms: _41  and  _42
REMARK    8  A    between atoms: _44  and  _46
REMARK    9  A    between atoms: _46  and  _47
REMARK   10  A    between atoms: _46  and  _49
REMARK   11  A    between atoms: _49  and  _50
REMARK   12  A    between atoms: _60  and  _62
REMARK   13  A    between atoms: _62  and  _63
REMARK   14  A    between atoms: _62  and  _65
REMARK   15  A    between atoms: _65  and  _66
REMARK   16  A    between atoms: _69  and  _71
REMARK   17  A    between atoms: _71  and  _72
REMARK   18  A    between atoms: _71  and  _74
REMARK   19  A    between atoms: _74  and  _75
REMARK   20  A    between atoms: _75  and  _76
REMARK   21  A    between atoms: _81  and  _83
REMARK   22  A    between atoms: _83  and  _84
REMARK   23  A    between atoms: _83  and  _86
REMARK   24  A    between atoms: _86  and  _87
REMARK   25  A    between atoms: _92  and  _93
REMARK   26  A    between atoms: _95  and  _97
REMARK   27  A    between atoms: _97  and  _98
REMARK   28  A    between atoms: _97  and  _100
REMARK   29  A    between atoms: _100  and  _101
REMARK   30  A    between atoms: _104  and  _106
REMARK   31  A    between atoms: _106  and  _107
REMARK   32  A    between atoms: _106  and  _109
REMARK   33  A    between atoms: _109  and  _110
REMARK   34  A    between atoms: _110  and  _111
REMARK   35  A    between atoms: _113  and  _115
REMARK   36  A    between atoms: _115  and  _116
REMARK   37  A    between atoms: _115  and  _118
REMARK   38  A    between atoms: _118  and  _119
REMARK   39  A    between atoms: _122  and  _124
REMARK   40  A    between atoms: _124  and  _125
REMARK   41  A    between atoms: _124  and  _127
REMARK   42  A    between atoms: _127  and  _128
REMARK   43  A    between atoms: _128  and  _130
REMARK   44  A    between atoms: _130  and  ZN_440
REMARK   45  A    between atoms: _132  and  _133
REMARK   46  A    between atoms: _138  and  _140
REMARK   47  A    between atoms: _140  and  _141
REMARK   48  A    between atoms: _140  and  _143
REMARK   49  A    between atoms: _143  and  _144
REMARK   50  A    between atoms: _150  and  _152
REMARK   51  A    between atoms: _152  and  _153
REMARK   52  A    between atoms: _152  and  _155
REMARK   53  A    between atoms: _155  and  _156
REMARK   54  A    between atoms: _156  and  _157
REMARK   55  A    between atoms: _157  and  _158
REMARK   56  A    between atoms: _167  and  _169
REMARK   57  A    between atoms: _169  and  _170
REMARK   58  A    between atoms: _169  and  _172
REMARK   59  A    between atoms: _172  and  _173
REMARK   60  A    between atoms: _178  and  _179
REMARK   61  A    between atoms: _181  and  _183
REMARK   62  A    between atoms: _183  and  _184
REMARK   63  A    between atoms: _183  and  _186
REMARK   64  A    between atoms: _186  and  _187
REMARK   65  A    between atoms: _189  and  _191
REMARK   66  A    between atoms: _191  and  _192
REMARK   67  A    between atoms: _191  and  _194
REMARK   68  A    between atoms: _194  and  _195
REMARK   69  A    between atoms: _200  and  _201
REMARK   70  A    between atoms: _203  and  _205
REMARK   71  A    between atoms: _205  and  _206
REMARK   72  A    between atoms: _205  and  _208
REMARK   73  A    between atoms: _208  and  _209
REMARK   74  A    between atoms: _209  and  _210
REMARK   75  A    between atoms: _210  and  _211
REMARK   76  A    between atoms: _211  and  _212
REMARK   77  A    between atoms: _216  and  _218
REMARK   78  A    between atoms: _218  and  _219
REMARK   79  A    between atoms: _218  and  _221
REMARK   80  A    between atoms: _221  and  _222
REMARK   81  A    between atoms: _225  and  _227
REMARK   82  A    between atoms: _227  and  _228
REMARK   83  A    between atoms: _227  and  _230
REMARK   84  A    between atoms: _230  and  _231
REMARK   85  A    between atoms: _234  and  _236
REMARK   86  A    between atoms: _236  and  _237
REMARK   87  A    between atoms: _236  and  _239
REMARK   88  A    between atoms: _239  and  _240
REMARK   89  A    between atoms: _243  and  _245
REMARK   90  A    between atoms: _245  and  _246
REMARK   91  A    between atoms: _245  and  _248
REMARK   92  A    between atoms: _248  and  _249
REMARK   93  A    between atoms: _255  and  _257
REMARK   94  A    between atoms: _257  and  _258
REMARK   95  A    between atoms: _257  and  _260
REMARK   96  A    between atoms: _260  and  _261
REMARK   97  A    between atoms: _261  and  _262
REMARK   98  A    between atoms: _262  and  _263
REMARK   99  A    between atoms: _272  and  _274
REMARK  100  A    between atoms: _274  and  _275
REMARK  101  A    between atoms: _274  and  _277
REMARK  102  A    between atoms: _277  and  _278
REMARK  103  A    between atoms: _283  and  _284
REMARK  104  A    between atoms: _286  and  _288
REMARK  105  A    between atoms: _288  and  _289
REMARK  106  A    between atoms: _288  and  _291
REMARK  107  A    between atoms: _291  and  _292
REMARK  108  A    between atoms: _295  and  _297
REMARK  109  A    between atoms: _297  and  _298
REMARK  110  A    between atoms: _297  and  _300
REMARK  111  A    between atoms: _300  and  _301
REMARK  112  A    between atoms: _311  and  _313
REMARK  113  A    between atoms: _313  and  _314
REMARK  114  A    between atoms: _313  and  _316
REMARK  115  A    between atoms: _316  and  _317
REMARK  116  A    between atoms: _322  and  _324
REMARK  117  A    between atoms: _324  and  _325
REMARK  118  A    between atoms: _324  and  _327
REMARK  119  A    between atoms: _327  and  _328
REMARK  120  A    between atoms: _332  and  ZN_440
REMARK  121  A    between atoms: _333  and  _335
REMARK  122  A    between atoms: _335  and  _336
REMARK  123  A    between atoms: _335  and  _338
REMARK  124  A    between atoms: _338  and  _339
REMARK  125  A    between atoms: _342  and  _344
REMARK  126  A    between atoms: _344  and  _345
REMARK  127  A    between atoms: _347  and  _349
REMARK  128  A    between atoms: _349  and  _350
REMARK  129  A    between atoms: _349  and  _352
REMARK  130  A    between atoms: _352  and  _353
REMARK  131  A    between atoms: _356  and  _358
REMARK  132  A    between atoms: _358  and  _359
REMARK  133  A    between atoms: _358  and  _361
REMARK  134  A    between atoms: _361  and  _362
REMARK  135  A    between atoms: _365  and  _367
REMARK  136  A    between atoms: _367  and  _368
REMARK  137  A    between atoms: _371  and  _373
REMARK  138  A    between atoms: _373  and  _374
REMARK  139  A    between atoms: _373  and  _376
REMARK  140  A    between atoms: _376  and  _377
REMARK  141  A    between atoms: _382  and  _383
REMARK  142  A    between atoms: _385  and  _387
REMARK  143  A    between atoms: _387  and  _388
REMARK  144  A    between atoms: _387  and  _390
REMARK  145  A    between atoms: _390  and  _391
REMARK  146  A    between atoms: _394  and  _396
REMARK  147  A    between atoms: _396  and  _397
REMARK  148  A    between atoms: _396  and  _399
REMARK  149  A    between atoms: _399  and  _400
REMARK  150  A    between atoms: _400  and  _401
REMARK  151  A    between atoms: _404  and  _406
REMARK  152  A    between atoms: _406  and  _407
REMARK  153  A    between atoms: _406  and  _409
REMARK  154  A    between atoms: _409  and  _410
REMARK  155  A    between atoms: _410  and  _411
REMARK  156  A    between atoms: _411  and  _412
REMARK  157  A    between atoms: _421  and  _423
REMARK  158  A    between atoms: _423  and  _424
REMARK  159  A    between atoms: _426  and  _428
REMARK  160  A    between atoms: _428  and  _429
REMARK  161  A    between atoms: _428  and  _431
REMARK  162  A    between atoms: _431  and  _432
REMARK  163  A    between atoms: _435  and  _437
REMARK  164  A    between atoms: _437  and  _438
REMARK                            x       y       z     vdW  Elec       q    Type
REMARK                         _______ _______ _______ _____ _____    ______ ____
ROOT
ATOM      1  O   HOH     1      25.864  63.669   8.681  0.00  0.00    +0.000 OA
ENDROOT
TORSDOF 0
REMARK  Name = ../refined-set-2016/3d52/3d52_pocket.pdb
REMARK  164 active torsions:
REMARK  status: ('A' for Active; 'I' for Inactive)
REMARK    1  A    between atoms: _1  and  _3
REMARK    2  A    between atoms: _14  and  _17
REMARK    3  A    between atoms: _17  and  _18
REMARK    4  A    between atoms: _25  and  _26
REMARK    5  A    between atoms: _33  and  _34
REMARK    6  A    between atoms: _39  and  _41
REMARK    7  A    between atoms: _41  and  _42
REMARK    8  A    between atoms: _44  and  _46
REMARK    9  A    between atoms: _46  and  _47
REMARK   10  A    between atoms: _46  and  _49
REMARK   11  A    between atoms: _49  and  _50
REMARK   12  A    between atoms: _60  and  _62
REMARK   13  A    between atoms: _62  and  _63
REMARK   14  A    between atoms: _62  and  _65
REMARK   15  A    between atoms: _65  and  _66
REMARK   16  A    between atoms: _69  and  _71
REMARK   17  A    between atoms: _71  and  _72
REMARK   18  A    between atoms: _71  and  _74
REMARK   19  A    between atoms: _74  and  _75
REMARK   20  A    between atoms: _75  and  _76
REMARK   21  A    between atoms: _81  and  _83
REMARK   22  A    between atoms: _83  and  _84
REMARK   23  A    between atoms: _83  and  _86
REMARK   24  A    between atoms: _86  and  _87
REMARK   25  A    between atoms: _92  and  _93
REMARK   26  A    between atoms: _95  and  _97
REMARK   27  A    between atoms: _97  and  _98
REMARK   28  A    between atoms: _97  and  _100
REMARK   29  A    between atoms: _100  and  _101
REMARK   30  A    between atoms: _104  and  _106
REMARK   31  A    between atoms: _106  and  _107
REMARK   32  A    between atoms: _106  and  _109
REMARK   33  A    between atoms: _109  and  _110
REMARK   34  A    between atoms: _110  and  _111
REMARK   35  A    between atoms: _113  and  _115
REMARK   36  A    between atoms: _115  and  _116
REMARK   37  A    between atoms: _115  and  _118
REMARK   38  A    between atoms: _118  and  _119
REMARK   39  A    between atoms: _122  and  _124
REMARK   40  A    between atoms: _124  and  _125
REMARK   41  A    between atoms: _124  and  _127
REMARK   42  A    between atoms: _127  and  _128
REMARK   43  A    between atoms: _128  and  _130
REMARK   44  A    between atoms: _130  and  ZN_440
REMARK   45  A    between atoms: _132  and  _133
REMARK   46  A    between atoms: _138  and  _140
REMARK   47  A    between atoms: _140  and  _141
REMARK   48  A    between atoms: _140  and  _143
REMARK   49  A    between atoms: _143  and  _144
REMARK   50  A    between atoms: _150  and  _152
REMARK   51  A    between atoms: _152  and  _153
REMARK   52  A    between atoms: _152  and  _155
REMARK   53  A    between atoms: _155  and  _156
REMARK   54  A    between atoms: _156  and  _157
REMARK   55  A    between atoms: _157  and  _158
REMARK   56  A    between atoms: _167  and  _169
REMARK   57  A    between atoms: _169  and  _170
REMARK   58  A    between atoms: _169  and  _172
REMARK   59  A    between atoms: _172  and  _173
REMARK   60  A    between atoms: _178  and  _179
REMARK   61  A    between atoms: _181  and  _183
REMARK   62  A    between atoms: _183  and  _184
REMARK   63  A    between atoms: _183  and  _186
REMARK   64  A    between atoms: _186  and  _187
REMARK   65  A    between atoms: _189  and  _191
REMARK   66  A    between atoms: _191  and  _192
REMARK   67  A    between atoms: _191  and  _194
REMARK   68  A    between atoms: _194  and  _195
REMARK   69  A    between atoms: _200  and  _201
REMARK   70  A    between atoms: _203  and  _205
REMARK   71  A    between atoms: _205  and  _206
REMARK   72  A    between atoms: _205  and  _208
REMARK   73  A    between atoms: _208  and  _209
REMARK   74  A    between atoms: _209  and  _210
REMARK   75  A    between atoms: _210  and  _211
REMARK   76  A    between atoms: _211  and  _212
REMARK   77  A    between atoms: _216  and  _218
REMARK   78  A    between atoms: _218  and  _219
REMARK   79  A    between atoms: _218  and  _221
REMARK   80  A    between atoms: _221  and  _222
REMARK   81  A    between atoms: _225  and  _227
REMARK   82  A    between atoms: _227  and  _228
REMARK   83  A    between atoms: _227  and  _230
REMARK   84  A    between atoms: _230  and  _231
REMARK   85  A    between atoms: _234  and  _236
REMARK   86  A    between atoms: _236  and  _237
REMARK   87  A    between atoms: _236  and  _239
REMARK   88  A    between atoms: _239  and  _240
REMARK   89  A    between atoms: _243  and  _245
REMARK   90  A    between atoms: _245  and  _246
REMARK   91  A    between atoms: _245  and  _248
REMARK   92  A    between atoms: _248  and  _249
REMARK   93  A    between atoms: _255  and  _257
REMARK   94  A    between atoms: _257  and  _258
REMARK   95  A    between atoms: _257  and  _260
REMARK   96  A    between atoms: _260  and  _261
REMARK   97  A    between atoms: _261  and  _262
REMARK   98  A    between atoms: _262  and  _263
REMARK   99  A    between atoms: _272  and  _274
REMARK  100  A    between atoms: _274  and  _275
REMARK  101  A    between atoms: _274  and  _277
REMARK  102  A    between atoms: _277  and  _278
REMARK  103  A    between atoms: _283  and  _284
REMARK  104  A    between atoms: _286  and  _288
REMARK  105  A    between atoms: _288  and  _289
REMARK  106  A    between atoms: _288  and  _291
REMARK  107  A    between atoms: _291  and  _292
REMARK  108  A    between atoms: _295  and  _297
REMARK  109  A    between atoms: _297  and  _298
REMARK  110  A    between atoms: _297  and  _300
REMARK  111  A    between atoms: _300  and  _301
REMARK  112  A    between atoms: _311  and  _313
REMARK  113  A    between atoms: _313  and  _314
REMARK  114  A    between atoms: _313  and  _316
REMARK  115  A    between atoms: _316  and  _317
REMARK  116  A    between atoms: _322  and  _324
REMARK  117  A    between atoms: _324  and  _325
REMARK  118  A    between atoms: _324  and  _327
REMARK  119  A    between atoms: _327  and  _328
REMARK  120  A    between atoms: _332  and  ZN_440
REMARK  121  A    between atoms: _333  and  _335
REMARK  122  A    between atoms: _335  and  _336
REMARK  123  A    between atoms: _335  and  _338
REMARK  124  A    between atoms: _338  and  _339
REMARK  125  A    between atoms: _342  and  _344
REMARK  126  A    between atoms: _344  and  _345
REMARK  127  A    between atoms: _347  and  _349
REMARK  128  A    between atoms: _349  and  _350
REMARK  129  A    between atoms: _349  and  _352
REMARK  130  A    between atoms: _352  and  _353
REMARK  131  A    between atoms: _356  and  _358
REMARK  132  A    between atoms: _358  and  _359
REMARK  133  A    between atoms: _358  and  _361
REMARK  134  A    between atoms: _361  and  _362
REMARK  135  A    between atoms: _365  and  _367
REMARK  136  A    between atoms: _367  and  _368
REMARK  137  A    between atoms: _371  and  _373
REMARK  138  A    between atoms: _373  and  _374
REMARK  139  A    between atoms: _373  and  _376
REMARK  140  A    between atoms: _376  and  _377
REMARK  141  A    between atoms: _382  and  _383
REMARK  142  A    between atoms: _385  and  _387
REMARK  143  A    between atoms: _387  and  _388
REMARK  144  A    between atoms: _387  and  _390
REMARK  145  A    between atoms: _390  and  _391
REMARK  146  A    between atoms: _394  and  _396
REMARK  147  A    between atoms: _396  and  _397
REMARK  148  A    between atoms: _396  and  _399
REMARK  149  A    between atoms: _399  and  _400
REMARK  150  A    between atoms: _400  and  _401
REMARK  151  A    between atoms: _404  and  _406
REMARK  152  A    between atoms: _406  and  _407
REMARK  153  A    between atoms: _406  and  _409
REMARK  154  A    between atoms: _409  and  _410
REMARK  155  A    between atoms: _410  and  _411
REMARK  156  A    between atoms: _411  and  _412
REMARK  157  A    between atoms: _421  and  _423
REMARK  158  A    between atoms: _423  and  _424
REMARK  159  A    between atoms: _426  and  _428
REMARK  160  A    between atoms: _428  and  _429
REMARK  161  A    between atoms: _428  and  _431
REMARK  162  A    between atoms: _431  and  _432
REMARK  163  A    between atoms: _435  and  _437
REMARK  164  A    between atoms: _437  and  _438
REMARK                            x       y       z     vdW  Elec       q    Type
REMARK                         _______ _______ _______ _____ _____    ______ ____
ROOT
ATOM      1  O   HOH     1      28.564  62.446  10.500  0.00  0.00    +0.000 OA
ENDROOT
TORSDOF 0
REMARK  Name = ../refined-set-2016/3d52/3d52_pocket.pdb
REMARK  164 active torsions:
REMARK  status: ('A' for Active; 'I' for Inactive)
REMARK    1  A    between atoms: _1  and  _3
REMARK    2  A    between atoms: _14  and  _17
REMARK    3  A    between atoms: _17  and  _18
REMARK    4  A    between atoms: _25  and  _26
REMARK    5  A    between atoms: _33  and  _34
REMARK    6  A    between atoms: _39  and  _41
REMARK    7  A    between atoms: _41  and  _42
REMARK    8  A    between atoms: _44  and  _46
REMARK    9  A    between atoms: _46  and  _47
REMARK   10  A    between atoms: _46  and  _49
REMARK   11  A    between atoms: _49  and  _50
REMARK   12  A    between atoms: _60  and  _62
REMARK   13  A    between atoms: _62  and  _63
REMARK   14  A    between atoms: _62  and  _65
REMARK   15  A    between atoms: _65  and  _66
REMARK   16  A    between atoms: _69  and  _71
REMARK   17  A    between atoms: _71  and  _72
REMARK   18  A    between atoms: _71  and  _74
REMARK   19  A    between atoms: _74  and  _75
REMARK   20  A    between atoms: _75  and  _76
REMARK   21  A    between atoms: _81  and  _83
REMARK   22  A    between atoms: _83  and  _84
REMARK   23  A    between atoms: _83  and  _86
REMARK   24  A    between atoms: _86  and  _87
REMARK   25  A    between atoms: _92  and  _93
REMARK   26  A    between atoms: _95  and  _97
REMARK   27  A    between atoms: _97  and  _98
REMARK   28  A    between atoms: _97  and  _100
REMARK   29  A    between atoms: _100  and  _101
REMARK   30  A    between atoms: _104  and  _106
REMARK   31  A    between atoms: _106  and  _107
REMARK   32  A    between atoms: _106  and  _109
REMARK   33  A    between atoms: _109  and  _110
REMARK   34  A    between atoms: _110  and  _111
REMARK   35  A    between atoms: _113  and  _115
REMARK   36  A    between atoms: _115  and  _116
REMARK   37  A    between atoms: _115  and  _118
REMARK   38  A    between atoms: _118  and  _119
REMARK   39  A    between atoms: _122  and  _124
REMARK   40  A    between atoms: _124  and  _125
REMARK   41  A    between atoms: _124  and  _127
REMARK   42  A    between atoms: _127  and  _128
REMARK   43  A    between atoms: _128  and  _130
REMARK   44  A    between atoms: _130  and  ZN_440
REMARK   45  A    between atoms: _132  and  _133
REMARK   46  A    between atoms: _138  and  _140
REMARK   47  A    between atoms: _140  and  _141
REMARK   48  A    between atoms: _140  and  _143
REMARK   49  A    between atoms: _143  and  _144
REMARK   50  A    between atoms: _150  and  _152
REMARK   51  A    between atoms: _152  and  _153
REMARK   52  A    between atoms: _152  and  _155
REMARK   53  A    between atoms: _155  and  _156
REMARK   54  A    between atoms: _156  and  _157
REMARK   55  A    between atoms: _157  and  _158
REMARK   56  A    between atoms: _167  and  _169
REMARK   57  A    between atoms: _169  and  _170
REMARK   58  A    between atoms: _169  and  _172
REMARK   59  A    between atoms: _172  and  _173
REMARK   60  A    between atoms: _178  and  _179
REMARK   61  A    between atoms: _181  and  _183
REMARK   62  A    between atoms: _183  and  _184
REMARK   63  A    between atoms: _183  and  _186
REMARK   64  A    between atoms: _186  and  _187
REMARK   65  A    between atoms: _189  and  _191
REMARK   66  A    between atoms: _191  and  _192
REMARK   67  A    between atoms: _191  and  _194
REMARK   68  A    between atoms: _194  and  _195
REMARK   69  A    between atoms: _200  and  _201
REMARK   70  A    between atoms: _203  and  _205
REMARK   71  A    between atoms: _205  and  _206
REMARK   72  A    between atoms: _205  and  _208
REMARK   73  A    between atoms: _208  and  _209
REMARK   74  A    between atoms: _209  and  _210
REMARK   75  A    between atoms: _210  and  _211
REMARK   76  A    between atoms: _211  and  _212
REMARK   77  A    between atoms: _216  and  _218
REMARK   78  A    between atoms: _218  and  _219
REMARK   79  A    between atoms: _218  and  _221
REMARK   80  A    between atoms: _221  and  _222
REMARK   81  A    between atoms: _225  and  _227
REMARK   82  A    between atoms: _227  and  _228
REMARK   83  A    between atoms: _227  and  _230
REMARK   84  A    between atoms: _230  and  _231
REMARK   85  A    between atoms: _234  and  _236
REMARK   86  A    between atoms: _236  and  _237
REMARK   87  A    between atoms: _236  and  _239
REMARK   88  A    between atoms: _239  and  _240
REMARK   89  A    between atoms: _243  and  _245
REMARK   90  A    between atoms: _245  and  _246
REMARK   91  A    between atoms: _245  and  _248
REMARK   92  A    between atoms: _248  and  _249
REMARK   93  A    between atoms: _255  and  _257
REMARK   94  A    between atoms: _257  and  _258
REMARK   95  A    between atoms: _257  and  _260
REMARK   96  A    between atoms: _260  and  _261
REMARK   97  A    between atoms: _261  and  _262
REMARK   98  A    between atoms: _262  and  _263
REMARK   99  A    between atoms: _272  and  _274
REMARK  100  A    between atoms: _274  and  _275
REMARK  101  A    between atoms: _274  and  _277
REMARK  102  A    between atoms: _277  and  _278
REMARK  103  A    between atoms: _283  and  _284
REMARK  104  A    between atoms: _286  and  _288
REMARK  105  A    between atoms: _288  and  _289
REMARK  106  A    between atoms: _288  and  _291
REMARK  107  A    between atoms: _291  and  _292
REMARK  108  A    between atoms: _295  and  _297
REMARK  109  A    between atoms: _297  and  _298
REMARK  110  A    between atoms: _297  and  _300
REMARK  111  A    between atoms: _300  and  _301
REMARK  112  A    between atoms: _311  and  _313
REMARK  113  A    between atoms: _313  and  _314
REMARK  114  A    between atoms: _313  and  _316
REMARK  115  A    between atoms: _316  and  _317
REMARK  116  A    between atoms: _322  and  _324
REMARK  117  A    between atoms: _324  and  _325
REMARK  118  A    between atoms: _324  and  _327
REMARK  119  A    between atoms: _327  and  _328
REMARK  120  A    between atoms: _332  and  ZN_440
REMARK  121  A    between atoms: _333  and  _335
REMARK  122  A    between atoms: _335  and  _336
REMARK  123  A    between atoms: _335  and  _338
REMARK  124  A    between atoms: _338  and  _339
REMARK  125  A    between atoms: _342  and  _344
REMARK  126  A    between atoms: _344  and  _345
REMARK  127  A    between atoms: _347  and  _349
REMARK  128  A    between atoms: _349  and  _350
REMARK  129  A    between atoms: _349  and  _352
REMARK  130  A    between atoms: _352  and  _353
REMARK  131  A    between atoms: _356  and  _358
REMARK  132  A    between atoms: _358  and  _359
REMARK  133  A    between atoms: _358  and  _361
REMARK  134  A    between atoms: _361  and  _362
REMARK  135  A    between atoms: _365  and  _367
REMARK  136  A    between atoms: _367  and  _368
REMARK  137  A    between atoms: _371  and  _373
REMARK  138  A    between atoms: _373  and  _374
REMARK  139  A    between atoms: _373  and  _376
REMARK  140  A    between atoms: _376  and  _377
REMARK  141  A    between atoms: _382  and  _383
REMARK  142  A    between atoms: _385  and  _387
REMARK  143  A    between atoms: _387  and  _388
REMARK  144  A    between atoms: _387  and  _390
REMARK  145  A    between atoms: _390  and  _391
REMARK  146  A    between atoms: _394  and  _396
REMARK  147  A    between atoms: _396  and  _397
REMARK  148  A    between atoms: _396  and  _399
REMARK  149  A    between atoms: _399  and  _400
REMARK  150  A    between atoms: _400  and  _401
REMARK  151  A    between atoms: _404  and  _406
REMARK  152  A    between atoms: _406  and  _407
REMARK  153  A    between atoms: _406  and  _409
REMARK  154  A    between atoms: _409  and  _410
REMARK  155  A    between atoms: _410  and  _411
REMARK  156  A    between atoms: _411  and  _412
REMARK  157  A    between atoms: _421  and  _423
REMARK  158  A    between atoms: _423  and  _424
REMARK  159  A    between atoms: _426  and  _428
REMARK  160  A    between atoms: _428  and  _429
REMARK  161  A    between atoms: _428  and  _431
REMARK  162  A    between atoms: _431  and  _432
REMARK  163  A    between atoms: _435  and  _437
REMARK  164  A    between atoms: _437  and  _438
REMARK                            x       y       z     vdW  Elec       q    Type
REMARK                         _______ _______ _______ _____ _____    ______ ____
ROOT
ATOM      1  O   HOH     1      27.541  63.510  13.726  0.00  0.00    +0.000 OA
ENDROOT
TORSDOF 0
REMARK  Name = ../refined-set-2016/3d52/3d52_pocket.pdb
REMARK  164 active torsions:
REMARK  status: ('A' for Active; 'I' for Inactive)
REMARK    1  A    between atoms: _1  and  _3
REMARK    2  A    between atoms: _14  and  _17
REMARK    3  A    between atoms: _17  and  _18
REMARK    4  A    between atoms: _25  and  _26
REMARK    5  A    between atoms: _33  and  _34
REMARK    6  A    between atoms: _39  and  _41
REMARK    7  A    between atoms: _41  and  _42
REMARK    8  A    between atoms: _44  and  _46
REMARK    9  A    between atoms: _46  and  _47
REMARK   10  A    between atoms: _46  and  _49
REMARK   11  A    between atoms: _49  and  _50
REMARK   12  A    between atoms: _60  and  _62
REMARK   13  A    between atoms: _62  and  _63
REMARK   14  A    between atoms: _62  and  _65
REMARK   15  A    between atoms: _65  and  _66
REMARK   16  A    between atoms: _69  and  _71
REMARK   17  A    between atoms: _71  and  _72
REMARK   18  A    between atoms: _71  and  _74
REMARK   19  A    between atoms: _74  and  _75
REMARK   20  A    between atoms: _75  and  _76
REMARK   21  A    between atoms: _81  and  _83
REMARK   22  A    between atoms: _83  and  _84
REMARK   23  A    between atoms: _83  and  _86
REMARK   24  A    between atoms: _86  and  _87
REMARK   25  A    between atoms: _92  and  _93
REMARK   26  A    between atoms: _95  and  _97
REMARK   27  A    between atoms: _97  and  _98
REMARK   28  A    between atoms: _97  and  _100
REMARK   29  A    between atoms: _100  and  _101
REMARK   30  A    between atoms: _104  and  _106
REMARK   31  A    between atoms: _106  and  _107
REMARK   32  A    between atoms: _106  and  _109
REMARK   33  A    between atoms: _109  and  _110
REMARK   34  A    between atoms: _110  and  _111
REMARK   35  A    between atoms: _113  and  _115
REMARK   36  A    between atoms: _115  and  _116
REMARK   37  A    between atoms: _115  and  _118
REMARK   38  A    between atoms: _118  and  _119
REMARK   39  A    between atoms: _122  and  _124
REMARK   40  A    between atoms: _124  and  _125
REMARK   41  A    between atoms: _124  and  _127
REMARK   42  A    between atoms: _127  and  _128
REMARK   43  A    between atoms: _128  and  _130
REMARK   44  A    between atoms: _130  and  ZN_440
REMARK   45  A    between atoms: _132  and  _133
REMARK   46  A    between atoms: _138  and  _140
REMARK   47  A    between atoms: _140  and  _141
REMARK   48  A    between atoms: _140  and  _143
REMARK   49  A    between atoms: _143  and  _144
REMARK   50  A    between atoms: _150  and  _152
REMARK   51  A    between atoms: _152  and  _153
REMARK   52  A    between atoms: _152  and  _155
REMARK   53  A    between atoms: _155  and  _156
REMARK   54  A    between atoms: _156  and  _157
REMARK   55  A    between atoms: _157  and  _158
REMARK   56  A    between atoms: _167  and  _169
REMARK   57  A    between atoms: _169  and  _170
REMARK   58  A    between atoms: _169  and  _172
REMARK   59  A    between atoms: _172  and  _173
REMARK   60  A    between atoms: _178  and  _179
REMARK   61  A    between atoms: _181  and  _183
REMARK   62  A    between atoms: _183  and  _184
REMARK   63  A    between atoms: _183  and  _186
REMARK   64  A    between atoms: _186  and  _187
REMARK   65  A    between atoms: _189  and  _191
REMARK   66  A    between atoms: _191  and  _192
REMARK   67  A    between atoms: _191  and  _194
REMARK   68  A    between atoms: _194  and  _195
REMARK   69  A    between atoms: _200  and  _201
REMARK   70  A    between atoms: _203  and  _205
REMARK   71  A    between atoms: _205  and  _206
REMARK   72  A    between atoms: _205  and  _208
REMARK   73  A    between atoms: _208  and  _209
REMARK   74  A    between atoms: _209  and  _210
REMARK   75  A    between atoms: _210  and  _211
REMARK   76  A    between atoms: _211  and  _212
REMARK   77  A    between atoms: _216  and  _218
REMARK   78  A    between atoms: _218  and  _219
REMARK   79  A    between atoms: _218  and  _221
REMARK   80  A    between atoms: _221  and  _222
REMARK   81  A    between atoms: _225  and  _227
REMARK   82  A    between atoms: _227  and  _228
REMARK   83  A    between atoms: _227  and  _230
REMARK   84  A    between atoms: _230  and  _231
REMARK   85  A    between atoms: _234  and  _236
REMARK   86  A    between atoms: _236  and  _237
REMARK   87  A    between atoms: _236  and  _239
REMARK   88  A    between atoms: _239  and  _240
REMARK   89  A    between atoms: _243  and  _245
REMARK   90  A    between atoms: _245  and  _246
REMARK   91  A    between atoms: _245  and  _248
REMARK   92  A    between atoms: _248  and  _249
REMARK   93  A    between atoms: _255  and  _257
REMARK   94  A    between atoms: _257  and  _258
REMARK   95  A    between atoms: _257  and  _260
REMARK   96  A    between atoms: _260  and  _261
REMARK   97  A    between atoms: _261  and  _262
REMARK   98  A    between atoms: _262  and  _263
REMARK   99  A    between atoms: _272  and  _274
REMARK  100  A    between atoms: _274  and  _275
REMARK  101  A    between atoms: _274  and  _277
REMARK  102  A    between atoms: _277  and  _278
REMARK  103  A    between atoms: _283  and  _284
REMARK  104  A    between atoms: _286  and  _288
REMARK  105  A    between atoms: _288  and  _289
REMARK  106  A    between atoms: _288  and  _291
REMARK  107  A    between atoms: _291  and  _292
REMARK  108  A    between atoms: _295  and  _297
REMARK  109  A    between atoms: _297  and  _298
REMARK  110  A    between atoms: _297  and  _300
REMARK  111  A    between atoms: _300  and  _301
REMARK  112  A    between atoms: _311  and  _313
REMARK  113  A    between atoms: _313  and  _314
REMARK  114  A    between atoms: _313  and  _316
REMARK  115  A    between atoms: _316  and  _317
REMARK  116  A    between atoms: _322  and  _324
REMARK  117  A    between atoms: _324  and  _325
REMARK  118  A    between atoms: _324  and  _327
REMARK  119  A    between atoms: _327  and  _328
REMARK  120  A    between atoms: _332  and  ZN_440
REMARK  121  A    between atoms: _333  and  _335
REMARK  122  A    between atoms: _335  and  _336
REMARK  123  A    between atoms: _335  and  _338
REMARK  124  A    between atoms: _338  and  _339
REMARK  125  A    between atoms: _342  and  _344
REMARK  126  A    between atoms: _344  and  _345
REMARK  127  A    between atoms: _347  and  _349
REMARK  128  A    between atoms: _349  and  _350
REMARK  129  A    between atoms: _349  and  _352
REMARK  130  A    between atoms: _352  and  _353
REMARK  131  A    between atoms: _356  and  _358
REMARK  132  A    between atoms: _358  and  _359
REMARK  133  A    between atoms: _358  and  _361
REMARK  134  A    between atoms: _361  and  _362
REMARK  135  A    between atoms: _365  and  _367
REMARK  136  A    between atoms: _367  and  _368
REMARK  137  A    between atoms: _371  and  _373
REMARK  138  A    between atoms: _373  and  _374
REMARK  139  A    between atoms: _373  and  _376
REMARK  140  A    between atoms: _376  and  _377
REMARK  141  A    between atoms: _382  and  _383
REMARK  142  A    between atoms: _385  and  _387
REMARK  143  A    between atoms: _387  and  _388
REMARK  144  A    between atoms: _387  and  _390
REMARK  145  A    between atoms: _390  and  _391
REMARK  146  A    between atoms: _394  and  _396
REMARK  147  A    between atoms: _396  and  _397
REMARK  148  A    between atoms: _396  and  _399
REMARK  149  A    between atoms: _399  and  _400
REMARK  150  A    between atoms: _400  and  _401
REMARK  151  A    between atoms: _404  and  _406
REMARK  152  A    between atoms: _406  and  _407
REMARK  153  A    between atoms: _406  and  _409
REMARK  154  A    between atoms: _409  and  _410
REMARK  155  A    between atoms: _410  and  _411
REMARK  156  A    between atoms: _411  and  _412
REMARK  157  A    between atoms: _421  and  _423
REMARK  158  A    between atoms: _423  and  _424
REMARK  159  A    between atoms: _426  and  _428
REMARK  160  A    between atoms: _428  and  _429
REMARK  161  A    between atoms: _428  and  _431
REMARK  162  A    between atoms: _431  and  _432
REMARK  163  A    between atoms: _435  and  _437
REMARK  164  A    between atoms: _437  and  _438
REMARK                            x       y       z     vdW  Elec       q    Type
REMARK                         _______ _______ _______ _____ _____    ______ ____
ROOT
ATOM      1  O   HOH     1      24.413  62.258  11.920  0.00  0.00    +0.000 OA
ENDROOT
TORSDOF 0
REMARK  Name = ../refined-set-2016/3d52/3d52_pocket.pdb
REMARK  164 active torsions:
REMARK  status: ('A' for Active; 'I' for Inactive)
REMARK    1  A    between atoms: _1  and  _3
REMARK    2  A    between atoms: _14  and  _17
REMARK    3  A    between atoms: _17  and  _18
REMARK    4  A    between atoms: _25  and  _26
REMARK    5  A    between atoms: _33  and  _34
REMARK    6  A    between atoms: _39  and  _41
REMARK    7  A    between atoms: _41  and  _42
REMARK    8  A    between atoms: _44  and  _46
REMARK    9  A    between atoms: _46  and  _47
REMARK   10  A    between atoms: _46  and  _49
REMARK   11  A    between atoms: _49  and  _50
REMARK   12  A    between atoms: _60  and  _62
REMARK   13  A    between atoms: _62  and  _63
REMARK   14  A    between atoms: _62  and  _65
REMARK   15  A    between atoms: _65  and  _66
REMARK   16  A    between atoms: _69  and  _71
REMARK   17  A    between atoms: _71  and  _72
REMARK   18  A    between atoms: _71  and  _74
REMARK   19  A    between atoms: _74  and  _75
REMARK   20  A    between atoms: _75  and  _76
REMARK   21  A    between atoms: _81  and  _83
REMARK   22  A    between atoms: _83  and  _84
REMARK   23  A    between atoms: _83  and  _86
REMARK   24  A    between atoms: _86  and  _87
REMARK   25  A    between atoms: _92  and  _93
REMARK   26  A    between atoms: _95  and  _97
REMARK   27  A    between atoms: _97  and  _98
REMARK   28  A    between atoms: _97  and  _100
REMARK   29  A    between atoms: _100  and  _101
REMARK   30  A    between atoms: _104  and  _106
REMARK   31  A    between atoms: _106  and  _107
REMARK   32  A    between atoms: _106  and  _109
REMARK   33  A    between atoms: _109  and  _110
REMARK   34  A    between atoms: _110  and  _111
REMARK   35  A    between atoms: _113  and  _115
REMARK   36  A    between atoms: _115  and  _116
REMARK   37  A    between atoms: _115  and  _118
REMARK   38  A    between atoms: _118  and  _119
REMARK   39  A    between atoms: _122  and  _124
REMARK   40  A    between atoms: _124  and  _125
REMARK   41  A    between atoms: _124  and  _127
REMARK   42  A    between atoms: _127  and  _128
REMARK   43  A    between atoms: _128  and  _130
REMARK   44  A    between atoms: _130  and  ZN_440
REMARK   45  A    between atoms: _132  and  _133
REMARK   46  A    between atoms: _138  and  _140
REMARK   47  A    between atoms: _140  and  _141
REMARK   48  A    between atoms: _140  and  _143
REMARK   49  A    between atoms: _143  and  _144
REMARK   50  A    between atoms: _150  and  _152
REMARK   51  A    between atoms: _152  and  _153
REMARK   52  A    between atoms: _152  and  _155
REMARK   53  A    between atoms: _155  and  _156
REMARK   54  A    between atoms: _156  and  _157
REMARK   55  A    between atoms: _157  and  _158
REMARK   56  A    between atoms: _167  and  _169
REMARK   57  A    between atoms: _169  and  _170
REMARK   58  A    between atoms: _169  and  _172
REMARK   59  A    between atoms: _172  and  _173
REMARK   60  A    between atoms: _178  and  _179
REMARK   61  A    between atoms: _181  and  _183
REMARK   62  A    between atoms: _183  and  _184
REMARK   63  A    between atoms: _183  and  _186
REMARK   64  A    between atoms: _186  and  _187
REMARK   65  A    between atoms: _189  and  _191
REMARK   66  A    between atoms: _191  and  _192
REMARK   67  A    between atoms: _191  and  _194
REMARK   68  A    between atoms: _194  and  _195
REMARK   69  A    between atoms: _200  and  _201
REMARK   70  A    between atoms: _203  and  _205
REMARK   71  A    between atoms: _205  and  _206
REMARK   72  A    between atoms: _205  and  _208
REMARK   73  A    between atoms: _208  and  _209
REMARK   74  A    between atoms: _209  and  _210
REMARK   75  A    between atoms: _210  and  _211
REMARK   76  A    between atoms: _211  and  _212
REMARK   77  A    between atoms: _216  and  _218
REMARK   78  A    between atoms: _218  and  _219
REMARK   79  A    between atoms: _218  and  _221
REMARK   80  A    between atoms: _221  and  _222
REMARK   81  A    between atoms: _225  and  _227
REMARK   82  A    between atoms: _227  and  _228
REMARK   83  A    between atoms: _227  and  _230
REMARK   84  A    between atoms: _230  and  _231
REMARK   85  A    between atoms: _234  and  _236
REMARK   86  A    between atoms: _236  and  _237
REMARK   87  A    between atoms: _236  and  _239
REMARK   88  A    between atoms: _239  and  _240
REMARK   89  A    between atoms: _243  and  _245
REMARK   90  A    between atoms: _245  and  _246
REMARK   91  A    between atoms: _245  and  _248
REMARK   92  A    between atoms: _248  and  _249
REMARK   93  A    between atoms: _255  and  _257
REMARK   94  A    between atoms: _257  and  _258
REMARK   95  A    between atoms: _257  and  _260
REMARK   96  A    between atoms: _260  and  _261
REMARK   97  A    between atoms: _261  and  _262
REMARK   98  A    between atoms: _262  and  _263
REMARK   99  A    between atoms: _272  and  _274
REMARK  100  A    between atoms: _274  and  _275
REMARK  101  A    between atoms: _274  and  _277
REMARK  102  A    between atoms: _277  and  _278
REMARK  103  A    between atoms: _283  and  _284
REMARK  104  A    between atoms: _286  and  _288
REMARK  105  A    between atoms: _288  and  _289
REMARK  106  A    between atoms: _288  and  _291
REMARK  107  A    between atoms: _291  and  _292
REMARK  108  A    between atoms: _295  and  _297
REMARK  109  A    between atoms: _297  and  _298
REMARK  110  A    between atoms: _297  and  _300
REMARK  111  A    between atoms: _300  and  _301
REMARK  112  A    between atoms: _311  and  _313
REMARK  113  A    between atoms: _313  and  _314
REMARK  114  A    between atoms: _313  and  _316
REMARK  115  A    between atoms: _316  and  _317
REMARK  116  A    between atoms: _322  and  _324
REMARK  117  A    between atoms: _324  and  _325
REMARK  118  A    between atoms: _324  and  _327
REMARK  119  A    between atoms: _327  and  _328
REMARK  120  A    between atoms: _332  and  ZN_440
REMARK  121  A    between atoms: _333  and  _335
REMARK  122  A    between atoms: _335  and  _336
REMARK  123  A    between atoms: _335  and  _338
REMARK  124  A    between atoms: _338  and  _339
REMARK  125  A    between atoms: _342  and  _344
REMARK  126  A    between atoms: _344  and  _345
REMARK  127  A    between atoms: _347  and  _349
REMARK  128  A    between atoms: _349  and  _350
REMARK  129  A    between atoms: _349  and  _352
REMARK  130  A    between atoms: _352  and  _353
REMARK  131  A    between atoms: _356  and  _358
REMARK  132  A    between atoms: _358  and  _359
REMARK  133  A    between atoms: _358  and  _361
REMARK  134  A    between atoms: _361  and  _362
REMARK  135  A    between atoms: _365  and  _367
REMARK  136  A    between atoms: _367  and  _368
REMARK  137  A    between atoms: _371  and  _373
REMARK  138  A    between atoms: _373  and  _374
REMARK  139  A    between atoms: _373  and  _376
REMARK  140  A    between atoms: _376  and  _377
REMARK  141  A    between atoms: _382  and  _383
REMARK  142  A    between atoms: _385  and  _387
REMARK  143  A    between atoms: _387  and  _388
REMARK  144  A    between atoms: _387  and  _390
REMARK  145  A    between atoms: _390  and  _391
REMARK  146  A    between atoms: _394  and  _396
REMARK  147  A    between atoms: _396  and  _397
REMARK  148  A    between atoms: _396  and  _399
REMARK  149  A    between atoms: _399  and  _400
REMARK  150  A    between atoms: _400  and  _401
REMARK  151  A    between atoms: _404  and  _406
REMARK  152  A    between atoms: _406  and  _407
REMARK  153  A    between atoms: _406  and  _409
REMARK  154  A    between atoms: _409  and  _410
REMARK  155  A    between atoms: _410  and  _411
REMARK  156  A    between atoms: _411  and  _412
REMARK  157  A    between atoms: _421  and  _423
REMARK  158  A    between atoms: _423  and  _424
REMARK  159  A    between atoms: _426  and  _428
REMARK  160  A    between atoms: _428  and  _429
REMARK  161  A    between atoms: _428  and  _431
REMARK  162  A    between atoms: _431  and  _432
REMARK  163  A    between atoms: _435  and  _437
REMARK  164  A    between atoms: _437  and  _438
REMARK                            x       y       z     vdW  Elec       q    Type
REMARK                         _______ _______ _______ _____ _____    ______ ____
ROOT
ATOM      1  O   HOH     1      23.385  61.246  14.080  0.00  0.00    +0.000 OA
ENDROOT
TORSDOF 0
REMARK  Name = ../refined-set-2016/3d52/3d52_pocket.pdb
REMARK  164 active torsions:
REMARK  status: ('A' for Active; 'I' for Inactive)
REMARK    1  A    between atoms: _1  and  _3
REMARK    2  A    between atoms: _14  and  _17
REMARK    3  A    between atoms: _17  and  _18
REMARK    4  A    between atoms: _25  and  _26
REMARK    5  A    between atoms: _33  and  _34
REMARK    6  A    between atoms: _39  and  _41
REMARK    7  A    between atoms: _41  and  _42
REMARK    8  A    between atoms: _44  and  _46
REMARK    9  A    between atoms: _46  and  _47
REMARK   10  A    between atoms: _46  and  _49
REMARK   11  A    between atoms: _49  and  _50
REMARK   12  A    between atoms: _60  and  _62
REMARK   13  A    between atoms: _62  and  _63
REMARK   14  A    between atoms: _62  and  _65
REMARK   15  A    between atoms: _65  and  _66
REMARK   16  A    between atoms: _69  and  _71
REMARK   17  A    between atoms: _71  and  _72
REMARK   18  A    between atoms: _71  and  _74
REMARK   19  A    between atoms: _74  and  _75
REMARK   20  A    between atoms: _75  and  _76
REMARK   21  A    between atoms: _81  and  _83
REMARK   22  A    between atoms: _83  and  _84
REMARK   23  A    between atoms: _83  and  _86
REMARK   24  A    between atoms: _86  and  _87
REMARK   25  A    between atoms: _92  and  _93
REMARK   26  A    between atoms: _95  and  _97
REMARK   27  A    between atoms: _97  and  _98
REMARK   28  A    between atoms: _97  and  _100
REMARK   29  A    between atoms: _100  and  _101
REMARK   30  A    between atoms: _104  and  _106
REMARK   31  A    between atoms: _106  and  _107
REMARK   32  A    between atoms: _106  and  _109
REMARK   33  A    between atoms: _109  and  _110
REMARK   34  A    between atoms: _110  and  _111
REMARK   35  A    between atoms: _113  and  _115
REMARK   36  A    between atoms: _115  and  _116
REMARK   37  A    between atoms: _115  and  _118
REMARK   38  A    between atoms: _118  and  _119
REMARK   39  A    between atoms: _122  and  _124
REMARK   40  A    between atoms: _124  and  _125
REMARK   41  A    between atoms: _124  and  _127
REMARK   42  A    between atoms: _127  and  _128
REMARK   43  A    between atoms: _128  and  _130
REMARK   44  A    between atoms: _130  and  ZN_440
REMARK   45  A    between atoms: _132  and  _133
REMARK   46  A    between atoms: _138  and  _140
REMARK   47  A    between atoms: _140  and  _141
REMARK   48  A    between atoms: _140  and  _143
REMARK   49  A    between atoms: _143  and  _144
REMARK   50  A    between atoms: _150  and  _152
REMARK   51  A    between atoms: _152  and  _153
REMARK   52  A    between atoms: _152  and  _155
REMARK   53  A    between atoms: _155  and  _156
REMARK   54  A    between atoms: _156  and  _157
REMARK   55  A    between atoms: _157  and  _158
REMARK   56  A    between atoms: _167  and  _169
REMARK   57  A    between atoms: _169  and  _170
REMARK   58  A    between atoms: _169  and  _172
REMARK   59  A    between atoms: _172  and  _173
REMARK   60  A    between atoms: _178  and  _179
REMARK   61  A    between atoms: _181  and  _183
REMARK   62  A    between atoms: _183  and  _184
REMARK   63  A    between atoms: _183  and  _186
REMARK   64  A    between atoms: _186  and  _187
REMARK   65  A    between atoms: _189  and  _191
REMARK   66  A    between atoms: _191  and  _192
REMARK   67  A    between atoms: _191  and  _194
REMARK   68  A    between atoms: _194  and  _195
REMARK   69  A    between atoms: _200  and  _201
REMARK   70  A    between atoms: _203  and  _205
REMARK   71  A    between atoms: _205  and  _206
REMARK   72  A    between atoms: _205  and  _208
REMARK   73  A    between atoms: _208  and  _209
REMARK   74  A    between atoms: _209  and  _210
REMARK   75  A    between atoms: _210  and  _211
REMARK   76  A    between atoms: _211  and  _212
REMARK   77  A    between atoms: _216  and  _218
REMARK   78  A    between atoms: _218  and  _219
REMARK   79  A    between atoms: _218  and  _221
REMARK   80  A    between atoms: _221  and  _222
REMARK   81  A    between atoms: _225  and  _227
REMARK   82  A    between atoms: _227  and  _228
REMARK   83  A    between atoms: _227  and  _230
REMARK   84  A    between atoms: _230  and  _231
REMARK   85  A    between atoms: _234  and  _236
REMARK   86  A    between atoms: _236  and  _237
REMARK   87  A    between atoms: _236  and  _239
REMARK   88  A    between atoms: _239  and  _240
REMARK   89  A    between atoms: _243  and  _245
REMARK   90  A    between atoms: _245  and  _246
REMARK   91  A    between atoms: _245  and  _248
REMARK   92  A    between atoms: _248  and  _249
REMARK   93  A    between atoms: _255  and  _257
REMARK   94  A    between atoms: _257  and  _258
REMARK   95  A    between atoms: _257  and  _260
REMARK   96  A    between atoms: _260  and  _261
REMARK   97  A    between atoms: _261  and  _262
REMARK   98  A    between atoms: _262  and  _263
REMARK   99  A    between atoms: _272  and  _274
REMARK  100  A    between atoms: _274  and  _275
REMARK  101  A    between atoms: _274  and  _277
REMARK  102  A    between atoms: _277  and  _278
REMARK  103  A    between atoms: _283  and  _284
REMARK  104  A    between atoms: _286  and  _288
REMARK  105  A    between atoms: _288  and  _289
REMARK  106  A    between atoms: _288  and  _291
REMARK  107  A    between atoms: _291  and  _292
REMARK  108  A    between atoms: _295  and  _297
REMARK  109  A    between atoms: _297  and  _298
REMARK  110  A    between atoms: _297  and  _300
REMARK  111  A    between atoms: _300  and  _301
REMARK  112  A    between atoms: _311  and  _313
REMARK  113  A    between atoms: _313  and  _314
REMARK  114  A    between atoms: _313  and  _316
REMARK  115  A    between atoms: _316  and  _317
REMARK  116  A    between atoms: _322  and  _324
REMARK  117  A    between atoms: _324  and  _325
REMARK  118  A    between atoms: _324  and  _327
REMARK  119  A    between atoms: _327  and  _328
REMARK  120  A    between atoms: _332  and  ZN_440
REMARK  121  A    between atoms: _333  and  _335
REMARK  122  A    between atoms: _335  and  _336
REMARK  123  A    between atoms: _335  and  _338
REMARK  124  A    between atoms: _338  and  _339
REMARK  125  A    between atoms: _342  and  _344
REMARK  126  A    between atoms: _344  and  _345
REMARK  127  A    between atoms: _347  and  _349
REMARK  128  A    between atoms: _349  and  _350
REMARK  129  A    between atoms: _349  and  _352
REMARK  130  A    between atoms: _352  and  _353
REMARK  131  A    between atoms: _356  and  _358
REMARK  132  A    between atoms: _358  and  _359
REMARK  133  A    between atoms: _358  and  _361
REMARK  134  A    between atoms: _361  and  _362
REMARK  135  A    between atoms: _365  and  _367
REMARK  136  A    between atoms: _367  and  _368
REMARK  137  A    between atoms: _371  and  _373
REMARK  138  A    between atoms: _373  and  _374
REMARK  139  A    between atoms: _373  and  _376
REMARK  140  A    between atoms: _376  and  _377
REMARK  141  A    between atoms: _382  and  _383
REMARK  142  A    between atoms: _385  and  _387
REMARK  143  A    between atoms: _387  and  _388
REMARK  144  A    between atoms: _387  and  _390
REMARK  145  A    between atoms: _390  and  _391
REMARK  146  A    between atoms: _394  and  _396
REMARK  147  A    between atoms: _396  and  _397
REMARK  148  A    between atoms: _396  and  _399
REMARK  149  A    between atoms: _399  and  _400
REMARK  150  A    between atoms: _400  and  _401
REMARK  151  A    between atoms: _404  and  _406
REMARK  152  A    between atoms: _406  and  _407
REMARK  153  A    between atoms: _406  and  _409
REMARK  154  A    between atoms: _409  and  _410
REMARK  155  A    between atoms: _410  and  _411
REMARK  156  A    between atoms: _411  and  _412
REMARK  157  A    between atoms: _421  and  _423
REMARK  158  A    between atoms: _423  and  _424
REMARK  159  A    between atoms: _426  and  _428
REMARK  160  A    between atoms: _428  and  _429
REMARK  161  A    between atoms: _428  and  _431
REMARK  162  A    between atoms: _431  and  _432
REMARK  163  A    between atoms: _435  and  _437
REMARK  164  A    between atoms: _437  and  _438
REMARK                            x       y       z     vdW  Elec       q    Type
REMARK                         _______ _______ _______ _____ _____    ______ ____
ROOT
ATOM      1  O   HOH     1      26.176  62.425  17.363  0.00  0.00    +0.000 OA
ENDROOT
TORSDOF 0
REMARK  Name = ../refined-set-2016/3d52/3d52_pocket.pdb
REMARK  164 active torsions:
REMARK  status: ('A' for Active; 'I' for Inactive)
REMARK    1  A    between atoms: _1  and  _3
REMARK    2  A    between atoms: _14  and  _17
REMARK    3  A    between atoms: _17  and  _18
REMARK    4  A    between atoms: _25  and  _26
REMARK    5  A    between atoms: _33  and  _34
REMARK    6  A    between atoms: _39  and  _41
REMARK    7  A    between atoms: _41  and  _42
REMARK    8  A    between atoms: _44  and  _46
REMARK    9  A    between atoms: _46  and  _47
REMARK   10  A    between atoms: _46  and  _49
REMARK   11  A    between atoms: _49  and  _50
REMARK   12  A    between atoms: _60  and  _62
REMARK   13  A    between atoms: _62  and  _63
REMARK   14  A    between atoms: _62  and  _65
REMARK   15  A    between atoms: _65  and  _66
REMARK   16  A    between atoms: _69  and  _71
REMARK   17  A    between atoms: _71  and  _72
REMARK   18  A    between atoms: _71  and  _74
REMARK   19  A    between atoms: _74  and  _75
REMARK   20  A    between atoms: _75  and  _76
REMARK   21  A    between atoms: _81  and  _83
REMARK   22  A    between atoms: _83  and  _84
REMARK   23  A    between atoms: _83  and  _86
REMARK   24  A    between atoms: _86  and  _87
REMARK   25  A    between atoms: _92  and  _93
REMARK   26  A    between atoms: _95  and  _97
REMARK   27  A    between atoms: _97  and  _98
REMARK   28  A    between atoms: _97  and  _100
REMARK   29  A    between atoms: _100  and  _101
REMARK   30  A    between atoms: _104  and  _106
REMARK   31  A    between atoms: _106  and  _107
REMARK   32  A    between atoms: _106  and  _109
REMARK   33  A    between atoms: _109  and  _110
REMARK   34  A    between atoms: _110  and  _111
REMARK   35  A    between atoms: _113  and  _115
REMARK   36  A    between atoms: _115  and  _116
REMARK   37  A    between atoms: _115  and  _118
REMARK   38  A    between atoms: _118  and  _119
REMARK   39  A    between atoms: _122  and  _124
REMARK   40  A    between atoms: _124  and  _125
REMARK   41  A    between atoms: _124  and  _127
REMARK   42  A    between atoms: _127  and  _128
REMARK   43  A    between atoms: _128  and  _130
REMARK   44  A    between atoms: _130  and  ZN_440
REMARK   45  A    between atoms: _132  and  _133
REMARK   46  A    between atoms: _138  and  _140
REMARK   47  A    between atoms: _140  and  _141
REMARK   48  A    between atoms: _140  and  _143
REMARK   49  A    between atoms: _143  and  _144
REMARK   50  A    between atoms: _150  and  _152
REMARK   51  A    between atoms: _152  and  _153
REMARK   52  A    between atoms: _152  and  _155
REMARK   53  A    between atoms: _155  and  _156
REMARK   54  A    between atoms: _156  and  _157
REMARK   55  A    between atoms: _157  and  _158
REMARK   56  A    between atoms: _167  and  _169
REMARK   57  A    between atoms: _169  and  _170
REMARK   58  A    between atoms: _169  and  _172
REMARK   59  A    between atoms: _172  and  _173
REMARK   60  A    between atoms: _178  and  _179
REMARK   61  A    between atoms: _181  and  _183
REMARK   62  A    between atoms: _183  and  _184
REMARK   63  A    between atoms: _183  and  _186
REMARK   64  A    between atoms: _186  and  _187
REMARK   65  A    between atoms: _189  and  _191
REMARK   66  A    between atoms: _191  and  _192
REMARK   67  A    between atoms: _191  and  _194
REMARK   68  A    between atoms: _194  and  _195
REMARK   69  A    between atoms: _200  and  _201
REMARK   70  A    between atoms: _203  and  _205
REMARK   71  A    between atoms: _205  and  _206
REMARK   72  A    between atoms: _205  and  _208
REMARK   73  A    between atoms: _208  and  _209
REMARK   74  A    between atoms: _209  and  _210
REMARK   75  A    between atoms: _210  and  _211
REMARK   76  A    between atoms: _211  and  _212
REMARK   77  A    between atoms: _216  and  _218
REMARK   78  A    between atoms: _218  and  _219
REMARK   79  A    between atoms: _218  and  _221
REMARK   80  A    between atoms: _221  and  _222
REMARK   81  A    between atoms: _225  and  _227
REMARK   82  A    between atoms: _227  and  _228
REMARK   83  A    between atoms: _227  and  _230
REMARK   84  A    between atoms: _230  and  _231
REMARK   85  A    between atoms: _234  and  _236
REMARK   86  A    between atoms: _236  and  _237
REMARK   87  A    between atoms: _236  and  _239
REMARK   88  A    between atoms: _239  and  _240
REMARK   89  A    between atoms: _243  and  _245
REMARK   90  A    between atoms: _245  and  _246
REMARK   91  A    between atoms: _245  and  _248
REMARK   92  A    between atoms: _248  and  _249
REMARK   93  A    between atoms: _255  and  _257
REMARK   94  A    between atoms: _257  and  _258
REMARK   95  A    between atoms: _257  and  _260
REMARK   96  A    between atoms: _260  and  _261
REMARK   97  A    between atoms: _261  and  _262
REMARK   98  A    between atoms: _262  and  _263
REMARK   99  A    between atoms: _272  and  _274
REMARK  100  A    between atoms: _274  and  _275
REMARK  101  A    between atoms: _274  and  _277
REMARK  102  A    between atoms: _277  and  _278
REMARK  103  A    between atoms: _283  and  _284
REMARK  104  A    between atoms: _286  and  _288
REMARK  105  A    between atoms: _288  and  _289
REMARK  106  A    between atoms: _288  and  _291
REMARK  107  A    between atoms: _291  and  _292
REMARK  108  A    between atoms: _295  and  _297
REMARK  109  A    between atoms: _297  and  _298
REMARK  110  A    between atoms: _297  and  _300
REMARK  111  A    between atoms: _300  and  _301
REMARK  112  A    between atoms: _311  and  _313
REMARK  113  A    between atoms: _313  and  _314
REMARK  114  A    between atoms: _313  and  _316
REMARK  115  A    between atoms: _316  and  _317
REMARK  116  A    between atoms: _322  and  _324
REMARK  117  A    between atoms: _324  and  _325
REMARK  118  A    between atoms: _324  and  _327
REMARK  119  A    between atoms: _327  and  _328
REMARK  120  A    between atoms: _332  and  ZN_440
REMARK  121  A    between atoms: _333  and  _335
REMARK  122  A    between atoms: _335  and  _336
REMARK  123  A    between atoms: _335  and  _338
REMARK  124  A    between atoms: _338  and  _339
REMARK  125  A    between atoms: _342  and  _344
REMARK  126  A    between atoms: _344  and  _345
REMARK  127  A    between atoms: _347  and  _349
REMARK  128  A    between atoms: _349  and  _350
REMARK  129  A    between atoms: _349  and  _352
REMARK  130  A    between atoms: _352  and  _353
REMARK  131  A    between atoms: _356  and  _358
REMARK  132  A    between atoms: _358  and  _359
REMARK  133  A    between atoms: _358  and  _361
REMARK  134  A    between atoms: _361  and  _362
REMARK  135  A    between atoms: _365  and  _367
REMARK  136  A    between atoms: _367  and  _368
REMARK  137  A    between atoms: _371  and  _373
REMARK  138  A    between atoms: _373  and  _374
REMARK  139  A    between atoms: _373  and  _376
REMARK  140  A    between atoms: _376  and  _377
REMARK  141  A    between atoms: _382  and  _383
REMARK  142  A    between atoms: _385  and  _387
REMARK  143  A    between atoms: _387  and  _388
REMARK  144  A    between atoms: _387  and  _390
REMARK  145  A    between atoms: _390  and  _391
REMARK  146  A    between atoms: _394  and  _396
REMARK  147  A    between atoms: _396  and  _397
REMARK  148  A    between atoms: _396  and  _399
REMARK  149  A    between atoms: _399  and  _400
REMARK  150  A    between atoms: _400  and  _401
REMARK  151  A    between atoms: _404  and  _406
REMARK  152  A    between atoms: _406  and  _407
REMARK  153  A    between atoms: _406  and  _409
REMARK  154  A    between atoms: _409  and  _410
REMARK  155  A    between atoms: _410  and  _411
REMARK  156  A    between atoms: _411  and  _412
REMARK  157  A    between atoms: _421  and  _423
REMARK  158  A    between atoms: _423  and  _424
REMARK  159  A    between atoms: _426  and  _428
REMARK  160  A    between atoms: _428  and  _429
REMARK  161  A    between atoms: _428  and  _431
REMARK  162  A    between atoms: _431  and  _432
REMARK  163  A    between atoms: _435  and  _437
REMARK  164  A    between atoms: _437  and  _438
REMARK                            x       y       z     vdW  Elec       q    Type
REMARK                         _______ _______ _______ _____ _____    ______ ____
ROOT
ATOM      1  O   HOH     1      25.309  64.791  17.776  0.00  0.00    +0.000 OA
ENDROOT
TORSDOF 0
REMARK  Name = ../refined-set-2016/3d52/3d52_pocket.pdb
REMARK  164 active torsions:
REMARK  status: ('A' for Active; 'I' for Inactive)
REMARK    1  A    between atoms: _1  and  _3
REMARK    2  A    between atoms: _14  and  _17
REMARK    3  A    between atoms: _17  and  _18
REMARK    4  A    between atoms: _25  and  _26
REMARK    5  A    between atoms: _33  and  _34
REMARK    6  A    between atoms: _39  and  _41
REMARK    7  A    between atoms: _41  and  _42
REMARK    8  A    between atoms: _44  and  _46
REMARK    9  A    between atoms: _46  and  _47
REMARK   10  A    between atoms: _46  and  _49
REMARK   11  A    between atoms: _49  and  _50
REMARK   12  A    between atoms: _60  and  _62
REMARK   13  A    between atoms: _62  and  _63
REMARK   14  A    between atoms: _62  and  _65
REMARK   15  A    between atoms: _65  and  _66
REMARK   16  A    between atoms: _69  and  _71
REMARK   17  A    between atoms: _71  and  _72
REMARK   18  A    between atoms: _71  and  _74
REMARK   19  A    between atoms: _74  and  _75
REMARK   20  A    between atoms: _75  and  _76
REMARK   21  A    between atoms: _81  and  _83
REMARK   22  A    between atoms: _83  and  _84
REMARK   23  A    between atoms: _83  and  _86
REMARK   24  A    between atoms: _86  and  _87
REMARK   25  A    between atoms: _92  and  _93
REMARK   26  A    between atoms: _95  and  _97
REMARK   27  A    between atoms: _97  and  _98
REMARK   28  A    between atoms: _97  and  _100
REMARK   29  A    between atoms: _100  and  _101
REMARK   30  A    between atoms: _104  and  _106
REMARK   31  A    between atoms: _106  and  _107
REMARK   32  A    between atoms: _106  and  _109
REMARK   33  A    between atoms: _109  and  _110
REMARK   34  A    between atoms: _110  and  _111
REMARK   35  A    between atoms: _113  and  _115
REMARK   36  A    between atoms: _115  and  _116
REMARK   37  A    between atoms: _115  and  _118
REMARK   38  A    between atoms: _118  and  _119
REMARK   39  A    between atoms: _122  and  _124
REMARK   40  A    between atoms: _124  and  _125
REMARK   41  A    between atoms: _124  and  _127
REMARK   42  A    between atoms: _127  and  _128
REMARK   43  A    between atoms: _128  and  _130
REMARK   44  A    between atoms: _130  and  ZN_440
REMARK   45  A    between atoms: _132  and  _133
REMARK   46  A    between atoms: _138  and  _140
REMARK   47  A    between atoms: _140  and  _141
REMARK   48  A    between atoms: _140  and  _143
REMARK   49  A    between atoms: _143  and  _144
REMARK   50  A    between atoms: _150  and  _152
REMARK   51  A    between atoms: _152  and  _153
REMARK   52  A    between atoms: _152  and  _155
REMARK   53  A    between atoms: _155  and  _156
REMARK   54  A    between atoms: _156  and  _157
REMARK   55  A    between atoms: _157  and  _158
REMARK   56  A    between atoms: _167  and  _169
REMARK   57  A    between atoms: _169  and  _170
REMARK   58  A    between atoms: _169  and  _172
REMARK   59  A    between atoms: _172  and  _173
REMARK   60  A    between atoms: _178  and  _179
REMARK   61  A    between atoms: _181  and  _183
REMARK   62  A    between atoms: _183  and  _184
REMARK   63  A    between atoms: _183  and  _186
REMARK   64  A    between atoms: _186  and  _187
REMARK   65  A    between atoms: _189  and  _191
REMARK   66  A    between atoms: _191  and  _192
REMARK   67  A    between atoms: _191  and  _194
REMARK   68  A    between atoms: _194  and  _195
REMARK   69  A    between atoms: _200  and  _201
REMARK   70  A    between atoms: _203  and  _205
REMARK   71  A    between atoms: _205  and  _206
REMARK   72  A    between atoms: _205  and  _208
REMARK   73  A    between atoms: _208  and  _209
REMARK   74  A    between atoms: _209  and  _210
REMARK   75  A    between atoms: _210  and  _211
REMARK   76  A    between atoms: _211  and  _212
REMARK   77  A    between atoms: _216  and  _218
REMARK   78  A    between atoms: _218  and  _219
REMARK   79  A    between atoms: _218  and  _221
REMARK   80  A    between atoms: _221  and  _222
REMARK   81  A    between atoms: _225  and  _227
REMARK   82  A    between atoms: _227  and  _228
REMARK   83  A    between atoms: _227  and  _230
REMARK   84  A    between atoms: _230  and  _231
REMARK   85  A    between atoms: _234  and  _236
REMARK   86  A    between atoms: _236  and  _237
REMARK   87  A    between atoms: _236  and  _239
REMARK   88  A    between atoms: _239  and  _240
REMARK   89  A    between atoms: _243  and  _245
REMARK   90  A    between atoms: _245  and  _246
REMARK   91  A    between atoms: _245  and  _248
REMARK   92  A    between atoms: _248  and  _249
REMARK   93  A    between atoms: _255  and  _257
REMARK   94  A    between atoms: _257  and  _258
REMARK   95  A    between atoms: _257  and  _260
REMARK   96  A    between atoms: _260  and  _261
REMARK   97  A    between atoms: _261  and  _262
REMARK   98  A    between atoms: _262  and  _263
REMARK   99  A    between atoms: _272  and  _274
REMARK  100  A    between atoms: _274  and  _275
REMARK  101  A    between atoms: _274  and  _277
REMARK  102  A    between atoms: _277  and  _278
REMARK  103  A    between atoms: _283  and  _284
REMARK  104  A    between atoms: _286  and  _288
REMARK  105  A    between atoms: _288  and  _289
REMARK  106  A    between atoms: _288  and  _291
REMARK  107  A    between atoms: _291  and  _292
REMARK  108  A    between atoms: _295  and  _297
REMARK  109  A    between atoms: _297  and  _298
REMARK  110  A    between atoms: _297  and  _300
REMARK  111  A    between atoms: _300  and  _301
REMARK  112  A    between atoms: _311  and  _313
REMARK  113  A    between atoms: _313  and  _314
REMARK  114  A    between atoms: _313  and  _316
REMARK  115  A    between atoms: _316  and  _317
REMARK  116  A    between atoms: _322  and  _324
REMARK  117  A    between atoms: _324  and  _325
REMARK  118  A    between atoms: _324  and  _327
REMARK  119  A    between atoms: _327  and  _328
REMARK  120  A    between atoms: _332  and  ZN_440
REMARK  121  A    between atoms: _333  and  _335
REMARK  122  A    between atoms: _335  and  _336
REMARK  123  A    between atoms: _335  and  _338
REMARK  124  A    between atoms: _338  and  _339
REMARK  125  A    between atoms: _342  and  _344
REMARK  126  A    between atoms: _344  and  _345
REMARK  127  A    between atoms: _347  and  _349
REMARK  128  A    between atoms: _349  and  _350
REMARK  129  A    between atoms: _349  and  _352
REMARK  130  A    between atoms: _352  and  _353
REMARK  131  A    between atoms: _356  and  _358
REMARK  132  A    between atoms: _358  and  _359
REMARK  133  A    between atoms: _358  and  _361
REMARK  134  A    between atoms: _361  and  _362
REMARK  135  A    between atoms: _365  and  _367
REMARK  136  A    between atoms: _367  and  _368
REMARK  137  A    between atoms: _371  and  _373
REMARK  138  A    between atoms: _373  and  _374
REMARK  139  A    between atoms: _373  and  _376
REMARK  140  A    between atoms: _376  and  _377
REMARK  141  A    between atoms: _382  and  _383
REMARK  142  A    between atoms: _385  and  _387
REMARK  143  A    between atoms: _387  and  _388
REMARK  144  A    between atoms: _387  and  _390
REMARK  145  A    between atoms: _390  and  _391
REMARK  146  A    between atoms: _394  and  _396
REMARK  147  A    between atoms: _396  and  _397
REMARK  148  A    between atoms: _396  and  _399
REMARK  149  A    between atoms: _399  and  _400
REMARK  150  A    between atoms: _400  and  _401
REMARK  151  A    between atoms: _404  and  _406
REMARK  152  A    between atoms: _406  and  _407
REMARK  153  A    between atoms: _406  and  _409
REMARK  154  A    between atoms: _409  and  _410
REMARK  155  A    between atoms: _410  and  _411
REMARK  156  A    between atoms: _411  and  _412
REMARK  157  A    between atoms: _421  and  _423
REMARK  158  A    between atoms: _423  and  _424
REMARK  159  A    between atoms: _426  and  _428
REMARK  160  A    between atoms: _428  and  _429
REMARK  161  A    between atoms: _428  and  _431
REMARK  162  A    between atoms: _431  and  _432
REMARK  163  A    between atoms: _435  and  _437
REMARK  164  A    between atoms: _437  and  _438
REMARK                            x       y       z     vdW  Elec       q    Type
REMARK                         _______ _______ _______ _____ _____    ______ ____
ROOT
ATOM      1  O   HOH     1      23.156  64.233  19.101  0.00  0.00    +0.000 OA
ENDROOT
TORSDOF 0
REMARK  Name = ../refined-set-2016/3d52/3d52_pocket.pdb
REMARK  164 active torsions:
REMARK  status: ('A' for Active; 'I' for Inactive)
REMARK    1  A    between atoms: _1  and  _3
REMARK    2  A    between atoms: _14  and  _17
REMARK    3  A    between atoms: _17  and  _18
REMARK    4  A    between atoms: _25  and  _26
REMARK    5  A    between atoms: _33  and  _34
REMARK    6  A    between atoms: _39  and  _41
REMARK    7  A    between atoms: _41  and  _42
REMARK    8  A    between atoms: _44  and  _46
REMARK    9  A    between atoms: _46  and  _47
REMARK   10  A    between atoms: _46  and  _49
REMARK   11  A    between atoms: _49  and  _50
REMARK   12  A    between atoms: _60  and  _62
REMARK   13  A    between atoms: _62  and  _63
REMARK   14  A    between atoms: _62  and  _65
REMARK   15  A    between atoms: _65  and  _66
REMARK   16  A    between atoms: _69  and  _71
REMARK   17  A    between atoms: _71  and  _72
REMARK   18  A    between atoms: _71  and  _74
REMARK   19  A    between atoms: _74  and  _75
REMARK   20  A    between atoms: _75  and  _76
REMARK   21  A    between atoms: _81  and  _83
REMARK   22  A    between atoms: _83  and  _84
REMARK   23  A    between atoms: _83  and  _86
REMARK   24  A    between atoms: _86  and  _87
REMARK   25  A    between atoms: _92  and  _93
REMARK   26  A    between atoms: _95  and  _97
REMARK   27  A    between atoms: _97  and  _98
REMARK   28  A    between atoms: _97  and  _100
REMARK   29  A    between atoms: _100  and  _101
REMARK   30  A    between atoms: _104  and  _106
REMARK   31  A    between atoms: _106  and  _107
REMARK   32  A    between atoms: _106  and  _109
REMARK   33  A    between atoms: _109  and  _110
REMARK   34  A    between atoms: _110  and  _111
REMARK   35  A    between atoms: _113  and  _115
REMARK   36  A    between atoms: _115  and  _116
REMARK   37  A    between atoms: _115  and  _118
REMARK   38  A    between atoms: _118  and  _119
REMARK   39  A    between atoms: _122  and  _124
REMARK   40  A    between atoms: _124  and  _125
REMARK   41  A    between atoms: _124  and  _127
REMARK   42  A    between atoms: _127  and  _128
REMARK   43  A    between atoms: _128  and  _130
REMARK   44  A    between atoms: _130  and  ZN_440
REMARK   45  A    between atoms: _132  and  _133
REMARK   46  A    between atoms: _138  and  _140
REMARK   47  A    between atoms: _140  and  _141
REMARK   48  A    between atoms: _140  and  _143
REMARK   49  A    between atoms: _143  and  _144
REMARK   50  A    between atoms: _150  and  _152
REMARK   51  A    between atoms: _152  and  _153
REMARK   52  A    between atoms: _152  and  _155
REMARK   53  A    between atoms: _155  and  _156
REMARK   54  A    between atoms: _156  and  _157
REMARK   55  A    between atoms: _157  and  _158
REMARK   56  A    between atoms: _167  and  _169
REMARK   57  A    between atoms: _169  and  _170
REMARK   58  A    between atoms: _169  and  _172
REMARK   59  A    between atoms: _172  and  _173
REMARK   60  A    between atoms: _178  and  _179
REMARK   61  A    between atoms: _181  and  _183
REMARK   62  A    between atoms: _183  and  _184
REMARK   63  A    between atoms: _183  and  _186
REMARK   64  A    between atoms: _186  and  _187
REMARK   65  A    between atoms: _189  and  _191
REMARK   66  A    between atoms: _191  and  _192
REMARK   67  A    between atoms: _191  and  _194
REMARK   68  A    between atoms: _194  and  _195
REMARK   69  A    between atoms: _200  and  _201
REMARK   70  A    between atoms: _203  and  _205
REMARK   71  A    between atoms: _205  and  _206
REMARK   72  A    between atoms: _205  and  _208
REMARK   73  A    between atoms: _208  and  _209
REMARK   74  A    between atoms: _209  and  _210
REMARK   75  A    between atoms: _210  and  _211
REMARK   76  A    between atoms: _211  and  _212
REMARK   77  A    between atoms: _216  and  _218
REMARK   78  A    between atoms: _218  and  _219
REMARK   79  A    between atoms: _218  and  _221
REMARK   80  A    between atoms: _221  and  _222
REMARK   81  A    between atoms: _225  and  _227
REMARK   82  A    between atoms: _227  and  _228
REMARK   83  A    between atoms: _227  and  _230
REMARK   84  A    between atoms: _230  and  _231
REMARK   85  A    between atoms: _234  and  _236
REMARK   86  A    between atoms: _236  and  _237
REMARK   87  A    between atoms: _236  and  _239
REMARK   88  A    between atoms: _239  and  _240
REMARK   89  A    between atoms: _243  and  _245
REMARK   90  A    between atoms: _245  and  _246
REMARK   91  A    between atoms: _245  and  _248
REMARK   92  A    between atoms: _248  and  _249
REMARK   93  A    between atoms: _255  and  _257
REMARK   94  A    between atoms: _257  and  _258
REMARK   95  A    between atoms: _257  and  _260
REMARK   96  A    between atoms: _260  and  _261
REMARK   97  A    between atoms: _261  and  _262
REMARK   98  A    between atoms: _262  and  _263
REMARK   99  A    between atoms: _272  and  _274
REMARK  100  A    between atoms: _274  and  _275
REMARK  101  A    between atoms: _274  and  _277
REMARK  102  A    between atoms: _277  and  _278
REMARK  103  A    between atoms: _283  and  _284
REMARK  104  A    between atoms: _286  and  _288
REMARK  105  A    between atoms: _288  and  _289
REMARK  106  A    between atoms: _288  and  _291
REMARK  107  A    between atoms: _291  and  _292
REMARK  108  A    between atoms: _295  and  _297
REMARK  109  A    between atoms: _297  and  _298
REMARK  110  A    between atoms: _297  and  _300
REMARK  111  A    between atoms: _300  and  _301
REMARK  112  A    between atoms: _311  and  _313
REMARK  113  A    between atoms: _313  and  _314
REMARK  114  A    between atoms: _313  and  _316
REMARK  115  A    between atoms: _316  and  _317
REMARK  116  A    between atoms: _322  and  _324
REMARK  117  A    between atoms: _324  and  _325
REMARK  118  A    between atoms: _324  and  _327
REMARK  119  A    between atoms: _327  and  _328
REMARK  120  A    between atoms: _332  and  ZN_440
REMARK  121  A    between atoms: _333  and  _335
REMARK  122  A    between atoms: _335  and  _336
REMARK  123  A    between atoms: _335  and  _338
REMARK  124  A    between atoms: _338  and  _339
REMARK  125  A    between atoms: _342  and  _344
REMARK  126  A    between atoms: _344  and  _345
REMARK  127  A    between atoms: _347  and  _349
REMARK  128  A    between atoms: _349  and  _350
REMARK  129  A    between atoms: _349  and  _352
REMARK  130  A    between atoms: _352  and  _353
REMARK  131  A    between atoms: _356  and  _358
REMARK  132  A    between atoms: _358  and  _359
REMARK  133  A    between atoms: _358  and  _361
REMARK  134  A    between atoms: _361  and  _362
REMARK  135  A    between atoms: _365  and  _367
REMARK  136  A    between atoms: _367  and  _368
REMARK  137  A    between atoms: _371  and  _373
REMARK  138  A    between atoms: _373  and  _374
REMARK  139  A    between atoms: _373  and  _376
REMARK  140  A    between atoms: _376  and  _377
REMARK  141  A    between atoms: _382  and  _383
REMARK  142  A    between atoms: _385  and  _387
REMARK  143  A    between atoms: _387  and  _388
REMARK  144  A    between atoms: _387  and  _390
REMARK  145  A    between atoms: _390  and  _391
REMARK  146  A    between atoms: _394  and  _396
REMARK  147  A    between atoms: _396  and  _397
REMARK  148  A    between atoms: _396  and  _399
REMARK  149  A    between atoms: _399  and  _400
REMARK  150  A    between atoms: _400  and  _401
REMARK  151  A    between atoms: _404  and  _406
REMARK  152  A    between atoms: _406  and  _407
REMARK  153  A    between atoms: _406  and  _409
REMARK  154  A    between atoms: _409  and  _410
REMARK  155  A    between atoms: _410  and  _411
REMARK  156  A    between atoms: _411  and  _412
REMARK  157  A    between atoms: _421  and  _423
REMARK  158  A    between atoms: _423  and  _424
REMARK  159  A    between atoms: _426  and  _428
REMARK  160  A    between atoms: _428  and  _429
REMARK  161  A    between atoms: _428  and  _431
REMARK  162  A    between atoms: _431  and  _432
REMARK  163  A    between atoms: _435  and  _437
REMARK  164  A    between atoms: _437  and  _438
REMARK                            x       y       z     vdW  Elec       q    Type
REMARK                         _______ _______ _______ _____ _____    ______ ____
ROOT
ATOM      1  O   HOH     1      24.570  66.838  22.203  0.00  0.00    +0.000 OA
ENDROOT
TORSDOF 0
REMARK  Name = ../refined-set-2016/3d52/3d52_pocket.pdb
REMARK  164 active torsions:
REMARK  status: ('A' for Active; 'I' for Inactive)
REMARK    1  A    between atoms: _1  and  _3
REMARK    2  A    between atoms: _14  and  _17
REMARK    3  A    between atoms: _17  and  _18
REMARK    4  A    between atoms: _25  and  _26
REMARK    5  A    between atoms: _33  and  _34
REMARK    6  A    between atoms: _39  and  _41
REMARK    7  A    between atoms: _41  and  _42
REMARK    8  A    between atoms: _44  and  _46
REMARK    9  A    between atoms: _46  and  _47
REMARK   10  A    between atoms: _46  and  _49
REMARK   11  A    between atoms: _49  and  _50
REMARK   12  A    between atoms: _60  and  _62
REMARK   13  A    between atoms: _62  and  _63
REMARK   14  A    between atoms: _62  and  _65
REMARK   15  A    between atoms: _65  and  _66
REMARK   16  A    between atoms: _69  and  _71
REMARK   17  A    between atoms: _71  and  _72
REMARK   18  A    between atoms: _71  and  _74
REMARK   19  A    between atoms: _74  and  _75
REMARK   20  A    between atoms: _75  and  _76
REMARK   21  A    between atoms: _81  and  _83
REMARK   22  A    between atoms: _83  and  _84
REMARK   23  A    between atoms: _83  and  _86
REMARK   24  A    between atoms: _86  and  _87
REMARK   25  A    between atoms: _92  and  _93
REMARK   26  A    between atoms: _95  and  _97
REMARK   27  A    between atoms: _97  and  _98
REMARK   28  A    between atoms: _97  and  _100
REMARK   29  A    between atoms: _100  and  _101
REMARK   30  A    between atoms: _104  and  _106
REMARK   31  A    between atoms: _106  and  _107
REMARK   32  A    between atoms: _106  and  _109
REMARK   33  A    between atoms: _109  and  _110
REMARK   34  A    between atoms: _110  and  _111
REMARK   35  A    between atoms: _113  and  _115
REMARK   36  A    between atoms: _115  and  _116
REMARK   37  A    between atoms: _115  and  _118
REMARK   38  A    between atoms: _118  and  _119
REMARK   39  A    between atoms: _122  and  _124
REMARK   40  A    between atoms: _124  and  _125
REMARK   41  A    between atoms: _124  and  _127
REMARK   42  A    between atoms: _127  and  _128
REMARK   43  A    between atoms: _128  and  _130
REMARK   44  A    between atoms: _130  and  ZN_440
REMARK   45  A    between atoms: _132  and  _133
REMARK   46  A    between atoms: _138  and  _140
REMARK   47  A    between atoms: _140  and  _141
REMARK   48  A    between atoms: _140  and  _143
REMARK   49  A    between atoms: _143  and  _144
REMARK   50  A    between atoms: _150  and  _152
REMARK   51  A    between atoms: _152  and  _153
REMARK   52  A    between atoms: _152  and  _155
REMARK   53  A    between atoms: _155  and  _156
REMARK   54  A    between atoms: _156  and  _157
REMARK   55  A    between atoms: _157  and  _158
REMARK   56  A    between atoms: _167  and  _169
REMARK   57  A    between atoms: _169  and  _170
REMARK   58  A    between atoms: _169  and  _172
REMARK   59  A    between atoms: _172  and  _173
REMARK   60  A    between atoms: _178  and  _179
REMARK   61  A    between atoms: _181  and  _183
REMARK   62  A    between atoms: _183  and  _184
REMARK   63  A    between atoms: _183  and  _186
REMARK   64  A    between atoms: _186  and  _187
REMARK   65  A    between atoms: _189  and  _191
REMARK   66  A    between atoms: _191  and  _192
REMARK   67  A    between atoms: _191  and  _194
REMARK   68  A    between atoms: _194  and  _195
REMARK   69  A    between atoms: _200  and  _201
REMARK   70  A    between atoms: _203  and  _205
REMARK   71  A    between atoms: _205  and  _206
REMARK   72  A    between atoms: _205  and  _208
REMARK   73  A    between atoms: _208  and  _209
REMARK   74  A    between atoms: _209  and  _210
REMARK   75  A    between atoms: _210  and  _211
REMARK   76  A    between atoms: _211  and  _212
REMARK   77  A    between atoms: _216  and  _218
REMARK   78  A    between atoms: _218  and  _219
REMARK   79  A    between atoms: _218  and  _221
REMARK   80  A    between atoms: _221  and  _222
REMARK   81  A    between atoms: _225  and  _227
REMARK   82  A    between atoms: _227  and  _228
REMARK   83  A    between atoms: _227  and  _230
REMARK   84  A    between atoms: _230  and  _231
REMARK   85  A    between atoms: _234  and  _236
REMARK   86  A    between atoms: _236  and  _237
REMARK   87  A    between atoms: _236  and  _239
REMARK   88  A    between atoms: _239  and  _240
REMARK   89  A    between atoms: _243  and  _245
REMARK   90  A    between atoms: _245  and  _246
REMARK   91  A    between atoms: _245  and  _248
REMARK   92  A    between atoms: _248  and  _249
REMARK   93  A    between atoms: _255  and  _257
REMARK   94  A    between atoms: _257  and  _258
REMARK   95  A    between atoms: _257  and  _260
REMARK   96  A    between atoms: _260  and  _261
REMARK   97  A    between atoms: _261  and  _262
REMARK   98  A    between atoms: _262  and  _263
REMARK   99  A    between atoms: _272  and  _274
REMARK  100  A    between atoms: _274  and  _275
REMARK  101  A    between atoms: _274  and  _277
REMARK  102  A    between atoms: _277  and  _278
REMARK  103  A    between atoms: _283  and  _284
REMARK  104  A    between atoms: _286  and  _288
REMARK  105  A    between atoms: _288  and  _289
REMARK  106  A    between atoms: _288  and  _291
REMARK  107  A    between atoms: _291  and  _292
REMARK  108  A    between atoms: _295  and  _297
REMARK  109  A    between atoms: _297  and  _298
REMARK  110  A    between atoms: _297  and  _300
REMARK  111  A    between atoms: _300  and  _301
REMARK  112  A    between atoms: _311  and  _313
REMARK  113  A    between atoms: _313  and  _314
REMARK  114  A    between atoms: _313  and  _316
REMARK  115  A    between atoms: _316  and  _317
REMARK  116  A    between atoms: _322  and  _324
REMARK  117  A    between atoms: _324  and  _325
REMARK  118  A    between atoms: _324  and  _327
REMARK  119  A    between atoms: _327  and  _328
REMARK  120  A    between atoms: _332  and  ZN_440
REMARK  121  A    between atoms: _333  and  _335
REMARK  122  A    between atoms: _335  and  _336
REMARK  123  A    between atoms: _335  and  _338
REMARK  124  A    between atoms: _338  and  _339
REMARK  125  A    between atoms: _342  and  _344
REMARK  126  A    between atoms: _344  and  _345
REMARK  127  A    between atoms: _347  and  _349
REMARK  128  A    between atoms: _349  and  _350
REMARK  129  A    between atoms: _349  and  _352
REMARK  130  A    between atoms: _352  and  _353
REMARK  131  A    between atoms: _356  and  _358
REMARK  132  A    between atoms: _358  and  _359
REMARK  133  A    between atoms: _358  and  _361
REMARK  134  A    between atoms: _361  and  _362
REMARK  135  A    between atoms: _365  and  _367
REMARK  136  A    between atoms: _367  and  _368
REMARK  137  A    between atoms: _371  and  _373
REMARK  138  A    between atoms: _373  and  _374
REMARK  139  A    between atoms: _373  and  _376
REMARK  140  A    between atoms: _376  and  _377
REMARK  141  A    between atoms: _382  and  _383
REMARK  142  A    between atoms: _385  and  _387
REMARK  143  A    between atoms: _387  and  _388
REMARK  144  A    between atoms: _387  and  _390
REMARK  145  A    between atoms: _390  and  _391
REMARK  146  A    between atoms: _394  and  _396
REMARK  147  A    between atoms: _396  and  _397
REMARK  148  A    between atoms: _396  and  _399
REMARK  149  A    between atoms: _399  and  _400
REMARK  150  A    between atoms: _400  and  _401
REMARK  151  A    between atoms: _404  and  _406
REMARK  152  A    between atoms: _406  and  _407
REMARK  153  A    between atoms: _406  and  _409
REMARK  154  A    between atoms: _409  and  _410
REMARK  155  A    between atoms: _410  and  _411
REMARK  156  A    between atoms: _411  and  _412
REMARK  157  A    between atoms: _421  and  _423
REMARK  158  A    between atoms: _423  and  _424
REMARK  159  A    between atoms: _426  and  _428
REMARK  160  A    between atoms: _428  and  _429
REMARK  161  A    between atoms: _428  and  _431
REMARK  162  A    between atoms: _431  and  _432
REMARK  163  A    between atoms: _435  and  _437
REMARK  164  A    between atoms: _437  and  _438
REMARK                            x       y       z     vdW  Elec       q    Type
REMARK                         _______ _______ _______ _____ _____    ______ ____
ROOT
ATOM      1  O   HOH     1      25.145  69.536  22.269  0.00  0.00    +0.000 OA
ENDROOT
TORSDOF 0
REMARK  Name = ../refined-set-2016/3d52/3d52_pocket.pdb
REMARK  164 active torsions:
REMARK  status: ('A' for Active; 'I' for Inactive)
REMARK    1  A    between atoms: _1  and  _3
REMARK    2  A    between atoms: _14  and  _17
REMARK    3  A    between atoms: _17  and  _18
REMARK    4  A    between atoms: _25  and  _26
REMARK    5  A    between atoms: _33  and  _34
REMARK    6  A    between atoms: _39  and  _41
REMARK    7  A    between atoms: _41  and  _42
REMARK    8  A    between atoms: _44  and  _46
REMARK    9  A    between atoms: _46  and  _47
REMARK   10  A    between atoms: _46  and  _49
REMARK   11  A    between atoms: _49  and  _50
REMARK   12  A    between atoms: _60  and  _62
REMARK   13  A    between atoms: _62  and  _63
REMARK   14  A    between atoms: _62  and  _65
REMARK   15  A    between atoms: _65  and  _66
REMARK   16  A    between atoms: _69  and  _71
REMARK   17  A    between atoms: _71  and  _72
REMARK   18  A    between atoms: _71  and  _74
REMARK   19  A    between atoms: _74  and  _75
REMARK   20  A    between atoms: _75  and  _76
REMARK   21  A    between atoms: _81  and  _83
REMARK   22  A    between atoms: _83  and  _84
REMARK   23  A    between atoms: _83  and  _86
REMARK   24  A    between atoms: _86  and  _87
REMARK   25  A    between atoms: _92  and  _93
REMARK   26  A    between atoms: _95  and  _97
REMARK   27  A    between atoms: _97  and  _98
REMARK   28  A    between atoms: _97  and  _100
REMARK   29  A    between atoms: _100  and  _101
REMARK   30  A    between atoms: _104  and  _106
REMARK   31  A    between atoms: _106  and  _107
REMARK   32  A    between atoms: _106  and  _109
REMARK   33  A    between atoms: _109  and  _110
REMARK   34  A    between atoms: _110  and  _111
REMARK   35  A    between atoms: _113  and  _115
REMARK   36  A    between atoms: _115  and  _116
REMARK   37  A    between atoms: _115  and  _118
REMARK   38  A    between atoms: _118  and  _119
REMARK   39  A    between atoms: _122  and  _124
REMARK   40  A    between atoms: _124  and  _125
REMARK   41  A    between atoms: _124  and  _127
REMARK   42  A    between atoms: _127  and  _128
REMARK   43  A    between atoms: _128  and  _130
REMARK   44  A    between atoms: _130  and  ZN_440
REMARK   45  A    between atoms: _132  and  _133
REMARK   46  A    between atoms: _138  and  _140
REMARK   47  A    between atoms: _140  and  _141
REMARK   48  A    between atoms: _140  and  _143
REMARK   49  A    between atoms: _143  and  _144
REMARK   50  A    between atoms: _150  and  _152
REMARK   51  A    between atoms: _152  and  _153
REMARK   52  A    between atoms: _152  and  _155
REMARK   53  A    between atoms: _155  and  _156
REMARK   54  A    between atoms: _156  and  _157
REMARK   55  A    between atoms: _157  and  _158
REMARK   56  A    between atoms: _167  and  _169
REMARK   57  A    between atoms: _169  and  _170
REMARK   58  A    between atoms: _169  and  _172
REMARK   59  A    between atoms: _172  and  _173
REMARK   60  A    between atoms: _178  and  _179
REMARK   61  A    between atoms: _181  and  _183
REMARK   62  A    between atoms: _183  and  _184
REMARK   63  A    between atoms: _183  and  _186
REMARK   64  A    between atoms: _186  and  _187
REMARK   65  A    between atoms: _189  and  _191
REMARK   66  A    between atoms: _191  and  _192
REMARK   67  A    between atoms: _191  and  _194
REMARK   68  A    between atoms: _194  and  _195
REMARK   69  A    between atoms: _200  and  _201
REMARK   70  A    between atoms: _203  and  _205
REMARK   71  A    between atoms: _205  and  _206
REMARK   72  A    between atoms: _205  and  _208
REMARK   73  A    between atoms: _208  and  _209
REMARK   74  A    between atoms: _209  and  _210
REMARK   75  A    between atoms: _210  and  _211
REMARK   76  A    between atoms: _211  and  _212
REMARK   77  A    between atoms: _216  and  _218
REMARK   78  A    between atoms: _218  and  _219
REMARK   79  A    between atoms: _218  and  _221
REMARK   80  A    between atoms: _221  and  _222
REMARK   81  A    between atoms: _225  and  _227
REMARK   82  A    between atoms: _227  and  _228
REMARK   83  A    between atoms: _227  and  _230
REMARK   84  A    between atoms: _230  and  _231
REMARK   85  A    between atoms: _234  and  _236
REMARK   86  A    between atoms: _236  and  _237
REMARK   87  A    between atoms: _236  and  _239
REMARK   88  A    between atoms: _239  and  _240
REMARK   89  A    between atoms: _243  and  _245
REMARK   90  A    between atoms: _245  and  _246
REMARK   91  A    between atoms: _245  and  _248
REMARK   92  A    between atoms: _248  and  _249
REMARK   93  A    between atoms: _255  and  _257
REMARK   94  A    between atoms: _257  and  _258
REMARK   95  A    between atoms: _257  and  _260
REMARK   96  A    between atoms: _260  and  _261
REMARK   97  A    between atoms: _261  and  _262
REMARK   98  A    between atoms: _262  and  _263
REMARK   99  A    between atoms: _272  and  _274
REMARK  100  A    between atoms: _274  and  _275
REMARK  101  A    between atoms: _274  and  _277
REMARK  102  A    between atoms: _277  and  _278
REMARK  103  A    between atoms: _283  and  _284
REMARK  104  A    between atoms: _286  and  _288
REMARK  105  A    between atoms: _288  and  _289
REMARK  106  A    between atoms: _288  and  _291
REMARK  107  A    between atoms: _291  and  _292
REMARK  108  A    between atoms: _295  and  _297
REMARK  109  A    between atoms: _297  and  _298
REMARK  110  A    between atoms: _297  and  _300
REMARK  111  A    between atoms: _300  and  _301
REMARK  112  A    between atoms: _311  and  _313
REMARK  113  A    between atoms: _313  and  _314
REMARK  114  A    between atoms: _313  and  _316
REMARK  115  A    between atoms: _316  and  _317
REMARK  116  A    between atoms: _322  and  _324
REMARK  117  A    between atoms: _324  and  _325
REMARK  118  A    between atoms: _324  and  _327
REMARK  119  A    between atoms: _327  and  _328
REMARK  120  A    between atoms: _332  and  ZN_440
REMARK  121  A    between atoms: _333  and  _335
REMARK  122  A    between atoms: _335  and  _336
REMARK  123  A    between atoms: _335  and  _338
REMARK  124  A    between atoms: _338  and  _339
REMARK  125  A    between atoms: _342  and  _344
REMARK  126  A    between atoms: _344  and  _345
REMARK  127  A    between atoms: _347  and  _349
REMARK  128  A    between atoms: _349  and  _350
REMARK  129  A    between atoms: _349  and  _352
REMARK  130  A    between atoms: _352  and  _353
REMARK  131  A    between atoms: _356  and  _358
REMARK  132  A    between atoms: _358  and  _359
REMARK  133  A    between atoms: _358  and  _361
REMARK  134  A    between atoms: _361  and  _362
REMARK  135  A    between atoms: _365  and  _367
REMARK  136  A    between atoms: _367  and  _368
REMARK  137  A    between atoms: _371  and  _373
REMARK  138  A    between atoms: _373  and  _374
REMARK  139  A    between atoms: _373  and  _376
REMARK  140  A    between atoms: _376  and  _377
REMARK  141  A    between atoms: _382  and  _383
REMARK  142  A    between atoms: _385  and  _387
REMARK  143  A    between atoms: _387  and  _388
REMARK  144  A    between atoms: _387  and  _390
REMARK  145  A    between atoms: _390  and  _391
REMARK  146  A    between atoms: _394  and  _396
REMARK  147  A    between atoms: _396  and  _397
REMARK  148  A    between atoms: _396  and  _399
REMARK  149  A    between atoms: _399  and  _400
REMARK  150  A    between atoms: _400  and  _401
REMARK  151  A    between atoms: _404  and  _406
REMARK  152  A    between atoms: _406  and  _407
REMARK  153  A    between atoms: _406  and  _409
REMARK  154  A    between atoms: _409  and  _410
REMARK  155  A    between atoms: _410  and  _411
REMARK  156  A    between atoms: _411  and  _412
REMARK  157  A    between atoms: _421  and  _423
REMARK  158  A    between atoms: _423  and  _424
REMARK  159  A    between atoms: _426  and  _428
REMARK  160  A    between atoms: _428  and  _429
REMARK  161  A    between atoms: _428  and  _431
REMARK  162  A    between atoms: _431  and  _432
REMARK  163  A    between atoms: _435  and  _437
REMARK  164  A    between atoms: _437  and  _438
REMARK                            x       y       z     vdW  Elec       q    Type
REMARK                         _______ _______ _______ _____ _____    ______ ____
ROOT
ATOM      1  O   HOH     1      32.408  67.671  23.915  0.00  0.00    +0.000 OA
ENDROOT
TORSDOF 0
REMARK  Name = ../refined-set-2016/3d52/3d52_pocket.pdb
REMARK  164 active torsions:
REMARK  status: ('A' for Active; 'I' for Inactive)
REMARK    1  A    between atoms: _1  and  _3
REMARK    2  A    between atoms: _14  and  _17
REMARK    3  A    between atoms: _17  and  _18
REMARK    4  A    between atoms: _25  and  _26
REMARK    5  A    between atoms: _33  and  _34
REMARK    6  A    between atoms: _39  and  _41
REMARK    7  A    between atoms: _41  and  _42
REMARK    8  A    between atoms: _44  and  _46
REMARK    9  A    between atoms: _46  and  _47
REMARK   10  A    between atoms: _46  and  _49
REMARK   11  A    between atoms: _49  and  _50
REMARK   12  A    between atoms: _60  and  _62
REMARK   13  A    between atoms: _62  and  _63
REMARK   14  A    between atoms: _62  and  _65
REMARK   15  A    between atoms: _65  and  _66
REMARK   16  A    between atoms: _69  and  _71
REMARK   17  A    between atoms: _71  and  _72
REMARK   18  A    between atoms: _71  and  _74
REMARK   19  A    between atoms: _74  and  _75
REMARK   20  A    between atoms: _75  and  _76
REMARK   21  A    between atoms: _81  and  _83
REMARK   22  A    between atoms: _83  and  _84
REMARK   23  A    between atoms: _83  and  _86
REMARK   24  A    between atoms: _86  and  _87
REMARK   25  A    between atoms: _92  and  _93
REMARK   26  A    between atoms: _95  and  _97
REMARK   27  A    between atoms: _97  and  _98
REMARK   28  A    between atoms: _97  and  _100
REMARK   29  A    between atoms: _100  and  _101
REMARK   30  A    between atoms: _104  and  _106
REMARK   31  A    between atoms: _106  and  _107
REMARK   32  A    between atoms: _106  and  _109
REMARK   33  A    between atoms: _109  and  _110
REMARK   34  A    between atoms: _110  and  _111
REMARK   35  A    between atoms: _113  and  _115
REMARK   36  A    between atoms: _115  and  _116
REMARK   37  A    between atoms: _115  and  _118
REMARK   38  A    between atoms: _118  and  _119
REMARK   39  A    between atoms: _122  and  _124
REMARK   40  A    between atoms: _124  and  _125
REMARK   41  A    between atoms: _124  and  _127
REMARK   42  A    between atoms: _127  and  _128
REMARK   43  A    between atoms: _128  and  _130
REMARK   44  A    between atoms: _130  and  ZN_440
REMARK   45  A    between atoms: _132  and  _133
REMARK   46  A    between atoms: _138  and  _140
REMARK   47  A    between atoms: _140  and  _141
REMARK   48  A    between atoms: _140  and  _143
REMARK   49  A    between atoms: _143  and  _144
REMARK   50  A    between atoms: _150  and  _152
REMARK   51  A    between atoms: _152  and  _153
REMARK   52  A    between atoms: _152  and  _155
REMARK   53  A    between atoms: _155  and  _156
REMARK   54  A    between atoms: _156  and  _157
REMARK   55  A    between atoms: _157  and  _158
REMARK   56  A    between atoms: _167  and  _169
REMARK   57  A    between atoms: _169  and  _170
REMARK   58  A    between atoms: _169  and  _172
REMARK   59  A    between atoms: _172  and  _173
REMARK   60  A    between atoms: _178  and  _179
REMARK   61  A    between atoms: _181  and  _183
REMARK   62  A    between atoms: _183  and  _184
REMARK   63  A    between atoms: _183  and  _186
REMARK   64  A    between atoms: _186  and  _187
REMARK   65  A    between atoms: _189  and  _191
REMARK   66  A    between atoms: _191  and  _192
REMARK   67  A    between atoms: _191  and  _194
REMARK   68  A    between atoms: _194  and  _195
REMARK   69  A    between atoms: _200  and  _201
REMARK   70  A    between atoms: _203  and  _205
REMARK   71  A    between atoms: _205  and  _206
REMARK   72  A    between atoms: _205  and  _208
REMARK   73  A    between atoms: _208  and  _209
REMARK   74  A    between atoms: _209  and  _210
REMARK   75  A    between atoms: _210  and  _211
REMARK   76  A    between atoms: _211  and  _212
REMARK   77  A    between atoms: _216  and  _218
REMARK   78  A    between atoms: _218  and  _219
REMARK   79  A    between atoms: _218  and  _221
REMARK   80  A    between atoms: _221  and  _222
REMARK   81  A    between atoms: _225  and  _227
REMARK   82  A    between atoms: _227  and  _228
REMARK   83  A    between atoms: _227  and  _230
REMARK   84  A    between atoms: _230  and  _231
REMARK   85  A    between atoms: _234  and  _236
REMARK   86  A    between atoms: _236  and  _237
REMARK   87  A    between atoms: _236  and  _239
REMARK   88  A    between atoms: _239  and  _240
REMARK   89  A    between atoms: _243  and  _245
REMARK   90  A    between atoms: _245  and  _246
REMARK   91  A    between atoms: _245  and  _248
REMARK   92  A    between atoms: _248  and  _249
REMARK   93  A    between atoms: _255  and  _257
REMARK   94  A    between atoms: _257  and  _258
REMARK   95  A    between atoms: _257  and  _260
REMARK   96  A    between atoms: _260  and  _261
REMARK   97  A    between atoms: _261  and  _262
REMARK   98  A    between atoms: _262  and  _263
REMARK   99  A    between atoms: _272  and  _274
REMARK  100  A    between atoms: _274  and  _275
REMARK  101  A    between atoms: _274  and  _277
REMARK  102  A    between atoms: _277  and  _278
REMARK  103  A    between atoms: _283  and  _284
REMARK  104  A    between atoms: _286  and  _288
REMARK  105  A    between atoms: _288  and  _289
REMARK  106  A    between atoms: _288  and  _291
REMARK  107  A    between atoms: _291  and  _292
REMARK  108  A    between atoms: _295  and  _297
REMARK  109  A    between atoms: _297  and  _298
REMARK  110  A    between atoms: _297  and  _300
REMARK  111  A    between atoms: _300  and  _301
REMARK  112  A    between atoms: _311  and  _313
REMARK  113  A    between atoms: _313  and  _314
REMARK  114  A    between atoms: _313  and  _316
REMARK  115  A    between atoms: _316  and  _317
REMARK  116  A    between atoms: _322  and  _324
REMARK  117  A    between atoms: _324  and  _325
REMARK  118  A    between atoms: _324  and  _327
REMARK  119  A    between atoms: _327  and  _328
REMARK  120  A    between atoms: _332  and  ZN_440
REMARK  121  A    between atoms: _333  and  _335
REMARK  122  A    between atoms: _335  and  _336
REMARK  123  A    between atoms: _335  and  _338
REMARK  124  A    between atoms: _338  and  _339
REMARK  125  A    between atoms: _342  and  _344
REMARK  126  A    between atoms: _344  and  _345
REMARK  127  A    between atoms: _347  and  _349
REMARK  128  A    between atoms: _349  and  _350
REMARK  129  A    between atoms: _349  and  _352
REMARK  130  A    between atoms: _352  and  _353
REMARK  131  A    between atoms: _356  and  _358
REMARK  132  A    between atoms: _358  and  _359
REMARK  133  A    between atoms: _358  and  _361
REMARK  134  A    between atoms: _361  and  _362
REMARK  135  A    between atoms: _365  and  _367
REMARK  136  A    between atoms: _367  and  _368
REMARK  137  A    between atoms: _371  and  _373
REMARK  138  A    between atoms: _373  and  _374
REMARK  139  A    between atoms: _373  and  _376
REMARK  140  A    between atoms: _376  and  _377
REMARK  141  A    between atoms: _382  and  _383
REMARK  142  A    between atoms: _385  and  _387
REMARK  143  A    between atoms: _387  and  _388
REMARK  144  A    between atoms: _387  and  _390
REMARK  145  A    between atoms: _390  and  _391
REMARK  146  A    between atoms: _394  and  _396
REMARK  147  A    between atoms: _396  and  _397
REMARK  148  A    between atoms: _396  and  _399
REMARK  149  A    between atoms: _399  and  _400
REMARK  150  A    between atoms: _400  and  _401
REMARK  151  A    between atoms: _404  and  _406
REMARK  152  A    between atoms: _406  and  _407
REMARK  153  A    between atoms: _406  and  _409
REMARK  154  A    between atoms: _409  and  _410
REMARK  155  A    between atoms: _410  and  _411
REMARK  156  A    between atoms: _411  and  _412
REMARK  157  A    between atoms: _421  and  _423
REMARK  158  A    between atoms: _423  and  _424
REMARK  159  A    between atoms: _426  and  _428
REMARK  160  A    between atoms: _428  and  _429
REMARK  161  A    between atoms: _428  and  _431
REMARK  162  A    between atoms: _431  and  _432
REMARK  163  A    between atoms: _435  and  _437
REMARK  164  A    between atoms: _437  and  _438
REMARK                            x       y       z     vdW  Elec       q    Type
REMARK                         _______ _______ _______ _____ _____    ______ ____
ROOT
ATOM      1  O   HOH     1      35.033  67.662  23.630  0.00  0.00    +0.000 OA
ENDROOT
TORSDOF 0
REMARK  Name = ../refined-set-2016/3d52/3d52_pocket.pdb
REMARK  164 active torsions:
REMARK  status: ('A' for Active; 'I' for Inactive)
REMARK    1  A    between atoms: _1  and  _3
REMARK    2  A    between atoms: _14  and  _17
REMARK    3  A    between atoms: _17  and  _18
REMARK    4  A    between atoms: _25  and  _26
REMARK    5  A    between atoms: _33  and  _34
REMARK    6  A    between atoms: _39  and  _41
REMARK    7  A    between atoms: _41  and  _42
REMARK    8  A    between atoms: _44  and  _46
REMARK    9  A    between atoms: _46  and  _47
REMARK   10  A    between atoms: _46  and  _49
REMARK   11  A    between atoms: _49  and  _50
REMARK   12  A    between atoms: _60  and  _62
REMARK   13  A    between atoms: _62  and  _63
REMARK   14  A    between atoms: _62  and  _65
REMARK   15  A    between atoms: _65  and  _66
REMARK   16  A    between atoms: _69  and  _71
REMARK   17  A    between atoms: _71  and  _72
REMARK   18  A    between atoms: _71  and  _74
REMARK   19  A    between atoms: _74  and  _75
REMARK   20  A    between atoms: _75  and  _76
REMARK   21  A    between atoms: _81  and  _83
REMARK   22  A    between atoms: _83  and  _84
REMARK   23  A    between atoms: _83  and  _86
REMARK   24  A    between atoms: _86  and  _87
REMARK   25  A    between atoms: _92  and  _93
REMARK   26  A    between atoms: _95  and  _97
REMARK   27  A    between atoms: _97  and  _98
REMARK   28  A    between atoms: _97  and  _100
REMARK   29  A    between atoms: _100  and  _101
REMARK   30  A    between atoms: _104  and  _106
REMARK   31  A    between atoms: _106  and  _107
REMARK   32  A    between atoms: _106  and  _109
REMARK   33  A    between atoms: _109  and  _110
REMARK   34  A    between atoms: _110  and  _111
REMARK   35  A    between atoms: _113  and  _115
REMARK   36  A    between atoms: _115  and  _116
REMARK   37  A    between atoms: _115  and  _118
REMARK   38  A    between atoms: _118  and  _119
REMARK   39  A    between atoms: _122  and  _124
REMARK   40  A    between atoms: _124  and  _125
REMARK   41  A    between atoms: _124  and  _127
REMARK   42  A    between atoms: _127  and  _128
REMARK   43  A    between atoms: _128  and  _130
REMARK   44  A    between atoms: _130  and  ZN_440
REMARK   45  A    between atoms: _132  and  _133
REMARK   46  A    between atoms: _138  and  _140
REMARK   47  A    between atoms: _140  and  _141
REMARK   48  A    between atoms: _140  and  _143
REMARK   49  A    between atoms: _143  and  _144
REMARK   50  A    between atoms: _150  and  _152
REMARK   51  A    between atoms: _152  and  _153
REMARK   52  A    between atoms: _152  and  _155
REMARK   53  A    between atoms: _155  and  _156
REMARK   54  A    between atoms: _156  and  _157
REMARK   55  A    between atoms: _157  and  _158
REMARK   56  A    between atoms: _167  and  _169
REMARK   57  A    between atoms: _169  and  _170
REMARK   58  A    between atoms: _169  and  _172
REMARK   59  A    between atoms: _172  and  _173
REMARK   60  A    between atoms: _178  and  _179
REMARK   61  A    between atoms: _181  and  _183
REMARK   62  A    between atoms: _183  and  _184
REMARK   63  A    between atoms: _183  and  _186
REMARK   64  A    between atoms: _186  and  _187
REMARK   65  A    between atoms: _189  and  _191
REMARK   66  A    between atoms: _191  and  _192
REMARK   67  A    between atoms: _191  and  _194
REMARK   68  A    between atoms: _194  and  _195
REMARK   69  A    between atoms: _200  and  _201
REMARK   70  A    between atoms: _203  and  _205
REMARK   71  A    between atoms: _205  and  _206
REMARK   72  A    between atoms: _205  and  _208
REMARK   73  A    between atoms: _208  and  _209
REMARK   74  A    between atoms: _209  and  _210
REMARK   75  A    between atoms: _210  and  _211
REMARK   76  A    between atoms: _211  and  _212
REMARK   77  A    between atoms: _216  and  _218
REMARK   78  A    between atoms: _218  and  _219
REMARK   79  A    between atoms: _218  and  _221
REMARK   80  A    between atoms: _221  and  _222
REMARK   81  A    between atoms: _225  and  _227
REMARK   82  A    between atoms: _227  and  _228
REMARK   83  A    between atoms: _227  and  _230
REMARK   84  A    between atoms: _230  and  _231
REMARK   85  A    between atoms: _234  and  _236
REMARK   86  A    between atoms: _236  and  _237
REMARK   87  A    between atoms: _236  and  _239
REMARK   88  A    between atoms: _239  and  _240
REMARK   89  A    between atoms: _243  and  _245
REMARK   90  A    between atoms: _245  and  _246
REMARK   91  A    between atoms: _245  and  _248
REMARK   92  A    between atoms: _248  and  _249
REMARK   93  A    between atoms: _255  and  _257
REMARK   94  A    between atoms: _257  and  _258
REMARK   95  A    between atoms: _257  and  _260
REMARK   96  A    between atoms: _260  and  _261
REMARK   97  A    between atoms: _261  and  _262
REMARK   98  A    between atoms: _262  and  _263
REMARK   99  A    between atoms: _272  and  _274
REMARK  100  A    between atoms: _274  and  _275
REMARK  101  A    between atoms: _274  and  _277
REMARK  102  A    between atoms: _277  and  _278
REMARK  103  A    between atoms: _283  and  _284
REMARK  104  A    between atoms: _286  and  _288
REMARK  105  A    between atoms: _288  and  _289
REMARK  106  A    between atoms: _288  and  _291
REMARK  107  A    between atoms: _291  and  _292
REMARK  108  A    between atoms: _295  and  _297
REMARK  109  A    between atoms: _297  and  _298
REMARK  110  A    between atoms: _297  and  _300
REMARK  111  A    between atoms: _300  and  _301
REMARK  112  A    between atoms: _311  and  _313
REMARK  113  A    between atoms: _313  and  _314
REMARK  114  A    between atoms: _313  and  _316
REMARK  115  A    between atoms: _316  and  _317
REMARK  116  A    between atoms: _322  and  _324
REMARK  117  A    between atoms: _324  and  _325
REMARK  118  A    between atoms: _324  and  _327
REMARK  119  A    between atoms: _327  and  _328
REMARK  120  A    between atoms: _332  and  ZN_440
REMARK  121  A    between atoms: _333  and  _335
REMARK  122  A    between atoms: _335  and  _336
REMARK  123  A    between atoms: _335  and  _338
REMARK  124  A    between atoms: _338  and  _339
REMARK  125  A    between atoms: _342  and  _344
REMARK  126  A    between atoms: _344  and  _345
REMARK  127  A    between atoms: _347  and  _349
REMARK  128  A    between atoms: _349  and  _350
REMARK  129  A    between atoms: _349  and  _352
REMARK  130  A    between atoms: _352  and  _353
REMARK  131  A    between atoms: _356  and  _358
REMARK  132  A    between atoms: _358  and  _359
REMARK  133  A    between atoms: _358  and  _361
REMARK  134  A    between atoms: _361  and  _362
REMARK  135  A    between atoms: _365  and  _367
REMARK  136  A    between atoms: _367  and  _368
REMARK  137  A    between atoms: _371  and  _373
REMARK  138  A    between atoms: _373  and  _374
REMARK  139  A    between atoms: _373  and  _376
REMARK  140  A    between atoms: _376  and  _377
REMARK  141  A    between atoms: _382  and  _383
REMARK  142  A    between atoms: _385  and  _387
REMARK  143  A    between atoms: _387  and  _388
REMARK  144  A    between atoms: _387  and  _390
REMARK  145  A    between atoms: _390  and  _391
REMARK  146  A    between atoms: _394  and  _396
REMARK  147  A    between atoms: _396  and  _397
REMARK  148  A    between atoms: _396  and  _399
REMARK  149  A    between atoms: _399  and  _400
REMARK  150  A    between atoms: _400  and  _401
REMARK  151  A    between atoms: _404  and  _406
REMARK  152  A    between atoms: _406  and  _407
REMARK  153  A    between atoms: _406  and  _409
REMARK  154  A    between atoms: _409  and  _410
REMARK  155  A    between atoms: _410  and  _411
REMARK  156  A    between atoms: _411  and  _412
REMARK  157  A    between atoms: _421  and  _423
REMARK  158  A    between atoms: _423  and  _424
REMARK  159  A    between atoms: _426  and  _428
REMARK  160  A    between atoms: _428  and  _429
REMARK  161  A    between atoms: _428  and  _431
REMARK  162  A    between atoms: _431  and  _432
REMARK  163  A    between atoms: _435  and  _437
REMARK  164  A    between atoms: _437  and  _438
REMARK                            x       y       z     vdW  Elec       q    Type
REMARK                         _______ _______ _______ _____ _____    ______ ____
ROOT
ATOM      1  O   HOH     1      35.450  66.615  20.958  0.00  0.00    +0.000 OA
ENDROOT
TORSDOF 0
REMARK  Name = ../refined-set-2016/3d52/3d52_pocket.pdb
REMARK  164 active torsions:
REMARK  status: ('A' for Active; 'I' for Inactive)
REMARK    1  A    between atoms: _1  and  _3
REMARK    2  A    between atoms: _14  and  _17
REMARK    3  A    between atoms: _17  and  _18
REMARK    4  A    between atoms: _25  and  _26
REMARK    5  A    between atoms: _33  and  _34
REMARK    6  A    between atoms: _39  and  _41
REMARK    7  A    between atoms: _41  and  _42
REMARK    8  A    between atoms: _44  and  _46
REMARK    9  A    between atoms: _46  and  _47
REMARK   10  A    between atoms: _46  and  _49
REMARK   11  A    between atoms: _49  and  _50
REMARK   12  A    between atoms: _60  and  _62
REMARK   13  A    between atoms: _62  and  _63
REMARK   14  A    between atoms: _62  and  _65
REMARK   15  A    between atoms: _65  and  _66
REMARK   16  A    between atoms: _69  and  _71
REMARK   17  A    between atoms: _71  and  _72
REMARK   18  A    between atoms: _71  and  _74
REMARK   19  A    between atoms: _74  and  _75
REMARK   20  A    between atoms: _75  and  _76
REMARK   21  A    between atoms: _81  and  _83
REMARK   22  A    between atoms: _83  and  _84
REMARK   23  A    between atoms: _83  and  _86
REMARK   24  A    between atoms: _86  and  _87
REMARK   25  A    between atoms: _92  and  _93
REMARK   26  A    between atoms: _95  and  _97
REMARK   27  A    between atoms: _97  and  _98
REMARK   28  A    between atoms: _97  and  _100
REMARK   29  A    between atoms: _100  and  _101
REMARK   30  A    between atoms: _104  and  _106
REMARK   31  A    between atoms: _106  and  _107
REMARK   32  A    between atoms: _106  and  _109
REMARK   33  A    between atoms: _109  and  _110
REMARK   34  A    between atoms: _110  and  _111
REMARK   35  A    between atoms: _113  and  _115
REMARK   36  A    between atoms: _115  and  _116
REMARK   37  A    between atoms: _115  and  _118
REMARK   38  A    between atoms: _118  and  _119
REMARK   39  A    between atoms: _122  and  _124
REMARK   40  A    between atoms: _124  and  _125
REMARK   41  A    between atoms: _124  and  _127
REMARK   42  A    between atoms: _127  and  _128
REMARK   43  A    between atoms: _128  and  _130
REMARK   44  A    between atoms: _130  and  ZN_440
REMARK   45  A    between atoms: _132  and  _133
REMARK   46  A    between atoms: _138  and  _140
REMARK   47  A    between atoms: _140  and  _141
REMARK   48  A    between atoms: _140  and  _143
REMARK   49  A    between atoms: _143  and  _144
REMARK   50  A    between atoms: _150  and  _152
REMARK   51  A    between atoms: _152  and  _153
REMARK   52  A    between atoms: _152  and  _155
REMARK   53  A    between atoms: _155  and  _156
REMARK   54  A    between atoms: _156  and  _157
REMARK   55  A    between atoms: _157  and  _158
REMARK   56  A    between atoms: _167  and  _169
REMARK   57  A    between atoms: _169  and  _170
REMARK   58  A    between atoms: _169  and  _172
REMARK   59  A    between atoms: _172  and  _173
REMARK   60  A    between atoms: _178  and  _179
REMARK   61  A    between atoms: _181  and  _183
REMARK   62  A    between atoms: _183  and  _184
REMARK   63  A    between atoms: _183  and  _186
REMARK   64  A    between atoms: _186  and  _187
REMARK   65  A    between atoms: _189  and  _191
REMARK   66  A    between atoms: _191  and  _192
REMARK   67  A    between atoms: _191  and  _194
REMARK   68  A    between atoms: _194  and  _195
REMARK   69  A    between atoms: _200  and  _201
REMARK   70  A    between atoms: _203  and  _205
REMARK   71  A    between atoms: _205  and  _206
REMARK   72  A    between atoms: _205  and  _208
REMARK   73  A    between atoms: _208  and  _209
REMARK   74  A    between atoms: _209  and  _210
REMARK   75  A    between atoms: _210  and  _211
REMARK   76  A    between atoms: _211  and  _212
REMARK   77  A    between atoms: _216  and  _218
REMARK   78  A    between atoms: _218  and  _219
REMARK   79  A    between atoms: _218  and  _221
REMARK   80  A    between atoms: _221  and  _222
REMARK   81  A    between atoms: _225  and  _227
REMARK   82  A    between atoms: _227  and  _228
REMARK   83  A    between atoms: _227  and  _230
REMARK   84  A    between atoms: _230  and  _231
REMARK   85  A    between atoms: _234  and  _236
REMARK   86  A    between atoms: _236  and  _237
REMARK   87  A    between atoms: _236  and  _239
REMARK   88  A    between atoms: _239  and  _240
REMARK   89  A    between atoms: _243  and  _245
REMARK   90  A    between atoms: _245  and  _246
REMARK   91  A    between atoms: _245  and  _248
REMARK   92  A    between atoms: _248  and  _249
REMARK   93  A    between atoms: _255  and  _257
REMARK   94  A    between atoms: _257  and  _258
REMARK   95  A    between atoms: _257  and  _260
REMARK   96  A    between atoms: _260  and  _261
REMARK   97  A    between atoms: _261  and  _262
REMARK   98  A    between atoms: _262  and  _263
REMARK   99  A    between atoms: _272  and  _274
REMARK  100  A    between atoms: _274  and  _275
REMARK  101  A    between atoms: _274  and  _277
REMARK  102  A    between atoms: _277  and  _278
REMARK  103  A    between atoms: _283  and  _284
REMARK  104  A    between atoms: _286  and  _288
REMARK  105  A    between atoms: _288  and  _289
REMARK  106  A    between atoms: _288  and  _291
REMARK  107  A    between atoms: _291  and  _292
REMARK  108  A    between atoms: _295  and  _297
REMARK  109  A    between atoms: _297  and  _298
REMARK  110  A    between atoms: _297  and  _300
REMARK  111  A    between atoms: _300  and  _301
REMARK  112  A    between atoms: _311  and  _313
REMARK  113  A    between atoms: _313  and  _314
REMARK  114  A    between atoms: _313  and  _316
REMARK  115  A    between atoms: _316  and  _317
REMARK  116  A    between atoms: _322  and  _324
REMARK  117  A    between atoms: _324  and  _325
REMARK  118  A    between atoms: _324  and  _327
REMARK  119  A    between atoms: _327  and  _328
REMARK  120  A    between atoms: _332  and  ZN_440
REMARK  121  A    between atoms: _333  and  _335
REMARK  122  A    between atoms: _335  and  _336
REMARK  123  A    between atoms: _335  and  _338
REMARK  124  A    between atoms: _338  and  _339
REMARK  125  A    between atoms: _342  and  _344
REMARK  126  A    between atoms: _344  and  _345
REMARK  127  A    between atoms: _347  and  _349
REMARK  128  A    between atoms: _349  and  _350
REMARK  129  A    between atoms: _349  and  _352
REMARK  130  A    between atoms: _352  and  _353
REMARK  131  A    between atoms: _356  and  _358
REMARK  132  A    between atoms: _358  and  _359
REMARK  133  A    between atoms: _358  and  _361
REMARK  134  A    between atoms: _361  and  _362
REMARK  135  A    between atoms: _365  and  _367
REMARK  136  A    between atoms: _367  and  _368
REMARK  137  A    between atoms: _371  and  _373
REMARK  138  A    between atoms: _373  and  _374
REMARK  139  A    between atoms: _373  and  _376
REMARK  140  A    between atoms: _376  and  _377
REMARK  141  A    between atoms: _382  and  _383
REMARK  142  A    between atoms: _385  and  _387
REMARK  143  A    between atoms: _387  and  _388
REMARK  144  A    between atoms: _387  and  _390
REMARK  145  A    between atoms: _390  and  _391
REMARK  146  A    between atoms: _394  and  _396
REMARK  147  A    between atoms: _396  and  _397
REMARK  148  A    between atoms: _396  and  _399
REMARK  149  A    between atoms: _399  and  _400
REMARK  150  A    between atoms: _400  and  _401
REMARK  151  A    between atoms: _404  and  _406
REMARK  152  A    between atoms: _406  and  _407
REMARK  153  A    between atoms: _406  and  _409
REMARK  154  A    between atoms: _409  and  _410
REMARK  155  A    between atoms: _410  and  _411
REMARK  156  A    between atoms: _411  and  _412
REMARK  157  A    between atoms: _421  and  _423
REMARK  158  A    between atoms: _423  and  _424
REMARK  159  A    between atoms: _426  and  _428
REMARK  160  A    between atoms: _428  and  _429
REMARK  161  A    between atoms: _428  and  _431
REMARK  162  A    between atoms: _431  and  _432
REMARK  163  A    between atoms: _435  and  _437
REMARK  164  A    between atoms: _437  and  _438
REMARK                            x       y       z     vdW  Elec       q    Type
REMARK                         _______ _______ _______ _____ _____    ______ ____
ROOT
ATOM      1  O   HOH     1      32.888  65.517  21.744  0.00  0.00    +0.000 OA
ENDROOT
TORSDOF 0
REMARK  Name = ../refined-set-2016/3d52/3d52_pocket.pdb
REMARK  164 active torsions:
REMARK  status: ('A' for Active; 'I' for Inactive)
REMARK    1  A    between atoms: _1  and  _3
REMARK    2  A    between atoms: _14  and  _17
REMARK    3  A    between atoms: _17  and  _18
REMARK    4  A    between atoms: _25  and  _26
REMARK    5  A    between atoms: _33  and  _34
REMARK    6  A    between atoms: _39  and  _41
REMARK    7  A    between atoms: _41  and  _42
REMARK    8  A    between atoms: _44  and  _46
REMARK    9  A    between atoms: _46  and  _47
REMARK   10  A    between atoms: _46  and  _49
REMARK   11  A    between atoms: _49  and  _50
REMARK   12  A    between atoms: _60  and  _62
REMARK   13  A    between atoms: _62  and  _63
REMARK   14  A    between atoms: _62  and  _65
REMARK   15  A    between atoms: _65  and  _66
REMARK   16  A    between atoms: _69  and  _71
REMARK   17  A    between atoms: _71  and  _72
REMARK   18  A    between atoms: _71  and  _74
REMARK   19  A    between atoms: _74  and  _75
REMARK   20  A    between atoms: _75  and  _76
REMARK   21  A    between atoms: _81  and  _83
REMARK   22  A    between atoms: _83  and  _84
REMARK   23  A    between atoms: _83  and  _86
REMARK   24  A    between atoms: _86  and  _87
REMARK   25  A    between atoms: _92  and  _93
REMARK   26  A    between atoms: _95  and  _97
REMARK   27  A    between atoms: _97  and  _98
REMARK   28  A    between atoms: _97  and  _100
REMARK   29  A    between atoms: _100  and  _101
REMARK   30  A    between atoms: _104  and  _106
REMARK   31  A    between atoms: _106  and  _107
REMARK   32  A    between atoms: _106  and  _109
REMARK   33  A    between atoms: _109  and  _110
REMARK   34  A    between atoms: _110  and  _111
REMARK   35  A    between atoms: _113  and  _115
REMARK   36  A    between atoms: _115  and  _116
REMARK   37  A    between atoms: _115  and  _118
REMARK   38  A    between atoms: _118  and  _119
REMARK   39  A    between atoms: _122  and  _124
REMARK   40  A    between atoms: _124  and  _125
REMARK   41  A    between atoms: _124  and  _127
REMARK   42  A    between atoms: _127  and  _128
REMARK   43  A    between atoms: _128  and  _130
REMARK   44  A    between atoms: _130  and  ZN_440
REMARK   45  A    between atoms: _132  and  _133
REMARK   46  A    between atoms: _138  and  _140
REMARK   47  A    between atoms: _140  and  _141
REMARK   48  A    between atoms: _140  and  _143
REMARK   49  A    between atoms: _143  and  _144
REMARK   50  A    between atoms: _150  and  _152
REMARK   51  A    between atoms: _152  and  _153
REMARK   52  A    between atoms: _152  and  _155
REMARK   53  A    between atoms: _155  and  _156
REMARK   54  A    between atoms: _156  and  _157
REMARK   55  A    between atoms: _157  and  _158
REMARK   56  A    between atoms: _167  and  _169
REMARK   57  A    between atoms: _169  and  _170
REMARK   58  A    between atoms: _169  and  _172
REMARK   59  A    between atoms: _172  and  _173
REMARK   60  A    between atoms: _178  and  _179
REMARK   61  A    between atoms: _181  and  _183
REMARK   62  A    between atoms: _183  and  _184
REMARK   63  A    between atoms: _183  and  _186
REMARK   64  A    between atoms: _186  and  _187
REMARK   65  A    between atoms: _189  and  _191
REMARK   66  A    between atoms: _191  and  _192
REMARK   67  A    between atoms: _191  and  _194
REMARK   68  A    between atoms: _194  and  _195
REMARK   69  A    between atoms: _200  and  _201
REMARK   70  A    between atoms: _203  and  _205
REMARK   71  A    between atoms: _205  and  _206
REMARK   72  A    between atoms: _205  and  _208
REMARK   73  A    between atoms: _208  and  _209
REMARK   74  A    between atoms: _209  and  _210
REMARK   75  A    between atoms: _210  and  _211
REMARK   76  A    between atoms: _211  and  _212
REMARK   77  A    between atoms: _216  and  _218
REMARK   78  A    between atoms: _218  and  _219
REMARK   79  A    between atoms: _218  and  _221
REMARK   80  A    between atoms: _221  and  _222
REMARK   81  A    between atoms: _225  and  _227
REMARK   82  A    between atoms: _227  and  _228
REMARK   83  A    between atoms: _227  and  _230
REMARK   84  A    between atoms: _230  and  _231
REMARK   85  A    between atoms: _234  and  _236
REMARK   86  A    between atoms: _236  and  _237
REMARK   87  A    between atoms: _236  and  _239
REMARK   88  A    between atoms: _239  and  _240
REMARK   89  A    between atoms: _243  and  _245
REMARK   90  A    between atoms: _245  and  _246
REMARK   91  A    between atoms: _245  and  _248
REMARK   92  A    between atoms: _248  and  _249
REMARK   93  A    between atoms: _255  and  _257
REMARK   94  A    between atoms: _257  and  _258
REMARK   95  A    between atoms: _257  and  _260
REMARK   96  A    between atoms: _260  and  _261
REMARK   97  A    between atoms: _261  and  _262
REMARK   98  A    between atoms: _262  and  _263
REMARK   99  A    between atoms: _272  and  _274
REMARK  100  A    between atoms: _274  and  _275
REMARK  101  A    between atoms: _274  and  _277
REMARK  102  A    between atoms: _277  and  _278
REMARK  103  A    between atoms: _283  and  _284
REMARK  104  A    between atoms: _286  and  _288
REMARK  105  A    between atoms: _288  and  _289
REMARK  106  A    between atoms: _288  and  _291
REMARK  107  A    between atoms: _291  and  _292
REMARK  108  A    between atoms: _295  and  _297
REMARK  109  A    between atoms: _297  and  _298
REMARK  110  A    between atoms: _297  and  _300
REMARK  111  A    between atoms: _300  and  _301
REMARK  112  A    between atoms: _311  and  _313
REMARK  113  A    between atoms: _313  and  _314
REMARK  114  A    between atoms: _313  and  _316
REMARK  115  A    between atoms: _316  and  _317
REMARK  116  A    between atoms: _322  and  _324
REMARK  117  A    between atoms: _324  and  _325
REMARK  118  A    between atoms: _324  and  _327
REMARK  119  A    between atoms: _327  and  _328
REMARK  120  A    between atoms: _332  and  ZN_440
REMARK  121  A    between atoms: _333  and  _335
REMARK  122  A    between atoms: _335  and  _336
REMARK  123  A    between atoms: _335  and  _338
REMARK  124  A    between atoms: _338  and  _339
REMARK  125  A    between atoms: _342  and  _344
REMARK  126  A    between atoms: _344  and  _345
REMARK  127  A    between atoms: _347  and  _349
REMARK  128  A    between atoms: _349  and  _350
REMARK  129  A    between atoms: _349  and  _352
REMARK  130  A    between atoms: _352  and  _353
REMARK  131  A    between atoms: _356  and  _358
REMARK  132  A    between atoms: _358  and  _359
REMARK  133  A    between atoms: _358  and  _361
REMARK  134  A    between atoms: _361  and  _362
REMARK  135  A    between atoms: _365  and  _367
REMARK  136  A    between atoms: _367  and  _368
REMARK  137  A    between atoms: _371  and  _373
REMARK  138  A    between atoms: _373  and  _374
REMARK  139  A    between atoms: _373  and  _376
REMARK  140  A    between atoms: _376  and  _377
REMARK  141  A    between atoms: _382  and  _383
REMARK  142  A    between atoms: _385  and  _387
REMARK  143  A    between atoms: _387  and  _388
REMARK  144  A    between atoms: _387  and  _390
REMARK  145  A    between atoms: _390  and  _391
REMARK  146  A    between atoms: _394  and  _396
REMARK  147  A    between atoms: _396  and  _397
REMARK  148  A    between atoms: _396  and  _399
REMARK  149  A    between atoms: _399  and  _400
REMARK  150  A    between atoms: _400  and  _401
REMARK  151  A    between atoms: _404  and  _406
REMARK  152  A    between atoms: _406  and  _407
REMARK  153  A    between atoms: _406  and  _409
REMARK  154  A    between atoms: _409  and  _410
REMARK  155  A    between atoms: _410  and  _411
REMARK  156  A    between atoms: _411  and  _412
REMARK  157  A    between atoms: _421  and  _423
REMARK  158  A    between atoms: _423  and  _424
REMARK  159  A    between atoms: _426  and  _428
REMARK  160  A    between atoms: _428  and  _429
REMARK  161  A    between atoms: _428  and  _431
REMARK  162  A    between atoms: _431  and  _432
REMARK  163  A    between atoms: _435  and  _437
REMARK  164  A    between atoms: _437  and  _438
REMARK                            x       y       z     vdW  Elec       q    Type
REMARK                         _______ _______ _______ _____ _____    ______ ____
ROOT
ATOM      1  O   HOH     1      31.696  64.265  19.546  0.00  0.00    +0.000 OA
ENDROOT
TORSDOF 0
REMARK  Name = ../refined-set-2016/3d52/3d52_pocket.pdb
REMARK  164 active torsions:
REMARK  status: ('A' for Active; 'I' for Inactive)
REMARK    1  A    between atoms: _1  and  _3
REMARK    2  A    between atoms: _14  and  _17
REMARK    3  A    between atoms: _17  and  _18
REMARK    4  A    between atoms: _25  and  _26
REMARK    5  A    between atoms: _33  and  _34
REMARK    6  A    between atoms: _39  and  _41
REMARK    7  A    between atoms: _41  and  _42
REMARK    8  A    between atoms: _44  and  _46
REMARK    9  A    between atoms: _46  and  _47
REMARK   10  A    between atoms: _46  and  _49
REMARK   11  A    between atoms: _49  and  _50
REMARK   12  A    between atoms: _60  and  _62
REMARK   13  A    between atoms: _62  and  _63
REMARK   14  A    between atoms: _62  and  _65
REMARK   15  A    between atoms: _65  and  _66
REMARK   16  A    between atoms: _69  and  _71
REMARK   17  A    between atoms: _71  and  _72
REMARK   18  A    between atoms: _71  and  _74
REMARK   19  A    between atoms: _74  and  _75
REMARK   20  A    between atoms: _75  and  _76
REMARK   21  A    between atoms: _81  and  _83
REMARK   22  A    between atoms: _83  and  _84
REMARK   23  A    between atoms: _83  and  _86
REMARK   24  A    between atoms: _86  and  _87
REMARK   25  A    between atoms: _92  and  _93
REMARK   26  A    between atoms: _95  and  _97
REMARK   27  A    between atoms: _97  and  _98
REMARK   28  A    between atoms: _97  and  _100
REMARK   29  A    between atoms: _100  and  _101
REMARK   30  A    between atoms: _104  and  _106
REMARK   31  A    between atoms: _106  and  _107
REMARK   32  A    between atoms: _106  and  _109
REMARK   33  A    between atoms: _109  and  _110
REMARK   34  A    between atoms: _110  and  _111
REMARK   35  A    between atoms: _113  and  _115
REMARK   36  A    between atoms: _115  and  _116
REMARK   37  A    between atoms: _115  and  _118
REMARK   38  A    between atoms: _118  and  _119
REMARK   39  A    between atoms: _122  and  _124
REMARK   40  A    between atoms: _124  and  _125
REMARK   41  A    between atoms: _124  and  _127
REMARK   42  A    between atoms: _127  and  _128
REMARK   43  A    between atoms: _128  and  _130
REMARK   44  A    between atoms: _130  and  ZN_440
REMARK   45  A    between atoms: _132  and  _133
REMARK   46  A    between atoms: _138  and  _140
REMARK   47  A    between atoms: _140  and  _141
REMARK   48  A    between atoms: _140  and  _143
REMARK   49  A    between atoms: _143  and  _144
REMARK   50  A    between atoms: _150  and  _152
REMARK   51  A    between atoms: _152  and  _153
REMARK   52  A    between atoms: _152  and  _155
REMARK   53  A    between atoms: _155  and  _156
REMARK   54  A    between atoms: _156  and  _157
REMARK   55  A    between atoms: _157  and  _158
REMARK   56  A    between atoms: _167  and  _169
REMARK   57  A    between atoms: _169  and  _170
REMARK   58  A    between atoms: _169  and  _172
REMARK   59  A    between atoms: _172  and  _173
REMARK   60  A    between atoms: _178  and  _179
REMARK   61  A    between atoms: _181  and  _183
REMARK   62  A    between atoms: _183  and  _184
REMARK   63  A    between atoms: _183  and  _186
REMARK   64  A    between atoms: _186  and  _187
REMARK   65  A    between atoms: _189  and  _191
REMARK   66  A    between atoms: _191  and  _192
REMARK   67  A    between atoms: _191  and  _194
REMARK   68  A    between atoms: _194  and  _195
REMARK   69  A    between atoms: _200  and  _201
REMARK   70  A    between atoms: _203  and  _205
REMARK   71  A    between atoms: _205  and  _206
REMARK   72  A    between atoms: _205  and  _208
REMARK   73  A    between atoms: _208  and  _209
REMARK   74  A    between atoms: _209  and  _210
REMARK   75  A    between atoms: _210  and  _211
REMARK   76  A    between atoms: _211  and  _212
REMARK   77  A    between atoms: _216  and  _218
REMARK   78  A    between atoms: _218  and  _219
REMARK   79  A    between atoms: _218  and  _221
REMARK   80  A    between atoms: _221  and  _222
REMARK   81  A    between atoms: _225  and  _227
REMARK   82  A    between atoms: _227  and  _228
REMARK   83  A    between atoms: _227  and  _230
REMARK   84  A    between atoms: _230  and  _231
REMARK   85  A    between atoms: _234  and  _236
REMARK   86  A    between atoms: _236  and  _237
REMARK   87  A    between atoms: _236  and  _239
REMARK   88  A    between atoms: _239  and  _240
REMARK   89  A    between atoms: _243  and  _245
REMARK   90  A    between atoms: _245  and  _246
REMARK   91  A    between atoms: _245  and  _248
REMARK   92  A    between atoms: _248  and  _249
REMARK   93  A    between atoms: _255  and  _257
REMARK   94  A    between atoms: _257  and  _258
REMARK   95  A    between atoms: _257  and  _260
REMARK   96  A    between atoms: _260  and  _261
REMARK   97  A    between atoms: _261  and  _262
REMARK   98  A    between atoms: _262  and  _263
REMARK   99  A    between atoms: _272  and  _274
REMARK  100  A    between atoms: _274  and  _275
REMARK  101  A    between atoms: _274  and  _277
REMARK  102  A    between atoms: _277  and  _278
REMARK  103  A    between atoms: _283  and  _284
REMARK  104  A    between atoms: _286  and  _288
REMARK  105  A    between atoms: _288  and  _289
REMARK  106  A    between atoms: _288  and  _291
REMARK  107  A    between atoms: _291  and  _292
REMARK  108  A    between atoms: _295  and  _297
REMARK  109  A    between atoms: _297  and  _298
REMARK  110  A    between atoms: _297  and  _300
REMARK  111  A    between atoms: _300  and  _301
REMARK  112  A    between atoms: _311  and  _313
REMARK  113  A    between atoms: _313  and  _314
REMARK  114  A    between atoms: _313  and  _316
REMARK  115  A    between atoms: _316  and  _317
REMARK  116  A    between atoms: _322  and  _324
REMARK  117  A    between atoms: _324  and  _325
REMARK  118  A    between atoms: _324  and  _327
REMARK  119  A    between atoms: _327  and  _328
REMARK  120  A    between atoms: _332  and  ZN_440
REMARK  121  A    between atoms: _333  and  _335
REMARK  122  A    between atoms: _335  and  _336
REMARK  123  A    between atoms: _335  and  _338
REMARK  124  A    between atoms: _338  and  _339
REMARK  125  A    between atoms: _342  and  _344
REMARK  126  A    between atoms: _344  and  _345
REMARK  127  A    between atoms: _347  and  _349
REMARK  128  A    between atoms: _349  and  _350
REMARK  129  A    between atoms: _349  and  _352
REMARK  130  A    between atoms: _352  and  _353
REMARK  131  A    between atoms: _356  and  _358
REMARK  132  A    between atoms: _358  and  _359
REMARK  133  A    between atoms: _358  and  _361
REMARK  134  A    between atoms: _361  and  _362
REMARK  135  A    between atoms: _365  and  _367
REMARK  136  A    between atoms: _367  and  _368
REMARK  137  A    between atoms: _371  and  _373
REMARK  138  A    between atoms: _373  and  _374
REMARK  139  A    between atoms: _373  and  _376
REMARK  140  A    between atoms: _376  and  _377
REMARK  141  A    between atoms: _382  and  _383
REMARK  142  A    between atoms: _385  and  _387
REMARK  143  A    between atoms: _387  and  _388
REMARK  144  A    between atoms: _387  and  _390
REMARK  145  A    between atoms: _390  and  _391
REMARK  146  A    between atoms: _394  and  _396
REMARK  147  A    between atoms: _396  and  _397
REMARK  148  A    between atoms: _396  and  _399
REMARK  149  A    between atoms: _399  and  _400
REMARK  150  A    between atoms: _400  and  _401
REMARK  151  A    between atoms: _404  and  _406
REMARK  152  A    between atoms: _406  and  _407
REMARK  153  A    between atoms: _406  and  _409
REMARK  154  A    between atoms: _409  and  _410
REMARK  155  A    between atoms: _410  and  _411
REMARK  156  A    between atoms: _411  and  _412
REMARK  157  A    between atoms: _421  and  _423
REMARK  158  A    between atoms: _423  and  _424
REMARK  159  A    between atoms: _426  and  _428
REMARK  160  A    between atoms: _428  and  _429
REMARK  161  A    between atoms: _428  and  _431
REMARK  162  A    between atoms: _431  and  _432
REMARK  163  A    between atoms: _435  and  _437
REMARK  164  A    between atoms: _437  and  _438
REMARK                            x       y       z     vdW  Elec       q    Type
REMARK                         _______ _______ _______ _____ _____    ______ ____
ROOT
ATOM      1  O   HOH     1      28.406  63.888  20.199  0.00  0.00    +0.000 OA
ENDROOT
TORSDOF 0
REMARK  Name = ../refined-set-2016/3d52/3d52_pocket.pdb
REMARK  164 active torsions:
REMARK  status: ('A' for Active; 'I' for Inactive)
REMARK    1  A    between atoms: _1  and  _3
REMARK    2  A    between atoms: _14  and  _17
REMARK    3  A    between atoms: _17  and  _18
REMARK    4  A    between atoms: _25  and  _26
REMARK    5  A    between atoms: _33  and  _34
REMARK    6  A    between atoms: _39  and  _41
REMARK    7  A    between atoms: _41  and  _42
REMARK    8  A    between atoms: _44  and  _46
REMARK    9  A    between atoms: _46  and  _47
REMARK   10  A    between atoms: _46  and  _49
REMARK   11  A    between atoms: _49  and  _50
REMARK   12  A    between atoms: _60  and  _62
REMARK   13  A    between atoms: _62  and  _63
REMARK   14  A    between atoms: _62  and  _65
REMARK   15  A    between atoms: _65  and  _66
REMARK   16  A    between atoms: _69  and  _71
REMARK   17  A    between atoms: _71  and  _72
REMARK   18  A    between atoms: _71  and  _74
REMARK   19  A    between atoms: _74  and  _75
REMARK   20  A    between atoms: _75  and  _76
REMARK   21  A    between atoms: _81  and  _83
REMARK   22  A    between atoms: _83  and  _84
REMARK   23  A    between atoms: _83  and  _86
REMARK   24  A    between atoms: _86  and  _87
REMARK   25  A    between atoms: _92  and  _93
REMARK   26  A    between atoms: _95  and  _97
REMARK   27  A    between atoms: _97  and  _98
REMARK   28  A    between atoms: _97  and  _100
REMARK   29  A    between atoms: _100  and  _101
REMARK   30  A    between atoms: _104  and  _106
REMARK   31  A    between atoms: _106  and  _107
REMARK   32  A    between atoms: _106  and  _109
REMARK   33  A    between atoms: _109  and  _110
REMARK   34  A    between atoms: _110  and  _111
REMARK   35  A    between atoms: _113  and  _115
REMARK   36  A    between atoms: _115  and  _116
REMARK   37  A    between atoms: _115  and  _118
REMARK   38  A    between atoms: _118  and  _119
REMARK   39  A    between atoms: _122  and  _124
REMARK   40  A    between atoms: _124  and  _125
REMARK   41  A    between atoms: _124  and  _127
REMARK   42  A    between atoms: _127  and  _128
REMARK   43  A    between atoms: _128  and  _130
REMARK   44  A    between atoms: _130  and  ZN_440
REMARK   45  A    between atoms: _132  and  _133
REMARK   46  A    between atoms: _138  and  _140
REMARK   47  A    between atoms: _140  and  _141
REMARK   48  A    between atoms: _140  and  _143
REMARK   49  A    between atoms: _143  and  _144
REMARK   50  A    between atoms: _150  and  _152
REMARK   51  A    between atoms: _152  and  _153
REMARK   52  A    between atoms: _152  and  _155
REMARK   53  A    between atoms: _155  and  _156
REMARK   54  A    between atoms: _156  and  _157
REMARK   55  A    between atoms: _157  and  _158
REMARK   56  A    between atoms: _167  and  _169
REMARK   57  A    between atoms: _169  and  _170
REMARK   58  A    between atoms: _169  and  _172
REMARK   59  A    between atoms: _172  and  _173
REMARK   60  A    between atoms: _178  and  _179
REMARK   61  A    between atoms: _181  and  _183
REMARK   62  A    between atoms: _183  and  _184
REMARK   63  A    between atoms: _183  and  _186
REMARK   64  A    between atoms: _186  and  _187
REMARK   65  A    between atoms: _189  and  _191
REMARK   66  A    between atoms: _191  and  _192
REMARK   67  A    between atoms: _191  and  _194
REMARK   68  A    between atoms: _194  and  _195
REMARK   69  A    between atoms: _200  and  _201
REMARK   70  A    between atoms: _203  and  _205
REMARK   71  A    between atoms: _205  and  _206
REMARK   72  A    between atoms: _205  and  _208
REMARK   73  A    between atoms: _208  and  _209
REMARK   74  A    between atoms: _209  and  _210
REMARK   75  A    between atoms: _210  and  _211
REMARK   76  A    between atoms: _211  and  _212
REMARK   77  A    between atoms: _216  and  _218
REMARK   78  A    between atoms: _218  and  _219
REMARK   79  A    between atoms: _218  and  _221
REMARK   80  A    between atoms: _221  and  _222
REMARK   81  A    between atoms: _225  and  _227
REMARK   82  A    between atoms: _227  and  _228
REMARK   83  A    between atoms: _227  and  _230
REMARK   84  A    between atoms: _230  and  _231
REMARK   85  A    between atoms: _234  and  _236
REMARK   86  A    between atoms: _236  and  _237
REMARK   87  A    between atoms: _236  and  _239
REMARK   88  A    between atoms: _239  and  _240
REMARK   89  A    between atoms: _243  and  _245
REMARK   90  A    between atoms: _245  and  _246
REMARK   91  A    between atoms: _245  and  _248
REMARK   92  A    between atoms: _248  and  _249
REMARK   93  A    between atoms: _255  and  _257
REMARK   94  A    between atoms: _257  and  _258
REMARK   95  A    between atoms: _257  and  _260
REMARK   96  A    between atoms: _260  and  _261
REMARK   97  A    between atoms: _261  and  _262
REMARK   98  A    between atoms: _262  and  _263
REMARK   99  A    between atoms: _272  and  _274
REMARK  100  A    between atoms: _274  and  _275
REMARK  101  A    between atoms: _274  and  _277
REMARK  102  A    between atoms: _277  and  _278
REMARK  103  A    between atoms: _283  and  _284
REMARK  104  A    between atoms: _286  and  _288
REMARK  105  A    between atoms: _288  and  _289
REMARK  106  A    between atoms: _288  and  _291
REMARK  107  A    between atoms: _291  and  _292
REMARK  108  A    between atoms: _295  and  _297
REMARK  109  A    between atoms: _297  and  _298
REMARK  110  A    between atoms: _297  and  _300
REMARK  111  A    between atoms: _300  and  _301
REMARK  112  A    between atoms: _311  and  _313
REMARK  113  A    between atoms: _313  and  _314
REMARK  114  A    between atoms: _313  and  _316
REMARK  115  A    between atoms: _316  and  _317
REMARK  116  A    between atoms: _322  and  _324
REMARK  117  A    between atoms: _324  and  _325
REMARK  118  A    between atoms: _324  and  _327
REMARK  119  A    between atoms: _327  and  _328
REMARK  120  A    between atoms: _332  and  ZN_440
REMARK  121  A    between atoms: _333  and  _335
REMARK  122  A    between atoms: _335  and  _336
REMARK  123  A    between atoms: _335  and  _338
REMARK  124  A    between atoms: _338  and  _339
REMARK  125  A    between atoms: _342  and  _344
REMARK  126  A    between atoms: _344  and  _345
REMARK  127  A    between atoms: _347  and  _349
REMARK  128  A    between atoms: _349  and  _350
REMARK  129  A    between atoms: _349  and  _352
REMARK  130  A    between atoms: _352  and  _353
REMARK  131  A    between atoms: _356  and  _358
REMARK  132  A    between atoms: _358  and  _359
REMARK  133  A    between atoms: _358  and  _361
REMARK  134  A    between atoms: _361  and  _362
REMARK  135  A    between atoms: _365  and  _367
REMARK  136  A    between atoms: _367  and  _368
REMARK  137  A    between atoms: _371  and  _373
REMARK  138  A    between atoms: _373  and  _374
REMARK  139  A    between atoms: _373  and  _376
REMARK  140  A    between atoms: _376  and  _377
REMARK  141  A    between atoms: _382  and  _383
REMARK  142  A    between atoms: _385  and  _387
REMARK  143  A    between atoms: _387  and  _388
REMARK  144  A    between atoms: _387  and  _390
REMARK  145  A    between atoms: _390  and  _391
REMARK  146  A    between atoms: _394  and  _396
REMARK  147  A    between atoms: _396  and  _397
REMARK  148  A    between atoms: _396  and  _399
REMARK  149  A    between atoms: _399  and  _400
REMARK  150  A    between atoms: _400  and  _401
REMARK  151  A    between atoms: _404  and  _406
REMARK  152  A    between atoms: _406  and  _407
REMARK  153  A    between atoms: _406  and  _409
REMARK  154  A    between atoms: _409  and  _410
REMARK  155  A    between atoms: _410  and  _411
REMARK  156  A    between atoms: _411  and  _412
REMARK  157  A    between atoms: _421  and  _423
REMARK  158  A    between atoms: _423  and  _424
REMARK  159  A    between atoms: _426  and  _428
REMARK  160  A    between atoms: _428  and  _429
REMARK  161  A    between atoms: _428  and  _431
REMARK  162  A    between atoms: _431  and  _432
REMARK  163  A    between atoms: _435  and  _437
REMARK  164  A    between atoms: _437  and  _438
REMARK                            x       y       z     vdW  Elec       q    Type
REMARK                         _______ _______ _______ _____ _____    ______ ____
ROOT
ATOM      1  O   HOH     1      26.212  65.498  20.215  0.00  0.00    +0.000 OA
ENDROOT
TORSDOF 0
REMARK  Name = ../refined-set-2016/3d52/3d52_pocket.pdb
REMARK  164 active torsions:
REMARK  status: ('A' for Active; 'I' for Inactive)
REMARK    1  A    between atoms: _1  and  _3
REMARK    2  A    between atoms: _14  and  _17
REMARK    3  A    between atoms: _17  and  _18
REMARK    4  A    between atoms: _25  and  _26
REMARK    5  A    between atoms: _33  and  _34
REMARK    6  A    between atoms: _39  and  _41
REMARK    7  A    between atoms: _41  and  _42
REMARK    8  A    between atoms: _44  and  _46
REMARK    9  A    between atoms: _46  and  _47
REMARK   10  A    between atoms: _46  and  _49
REMARK   11  A    between atoms: _49  and  _50
REMARK   12  A    between atoms: _60  and  _62
REMARK   13  A    between atoms: _62  and  _63
REMARK   14  A    between atoms: _62  and  _65
REMARK   15  A    between atoms: _65  and  _66
REMARK   16  A    between atoms: _69  and  _71
REMARK   17  A    between atoms: _71  and  _72
REMARK   18  A    between atoms: _71  and  _74
REMARK   19  A    between atoms: _74  and  _75
REMARK   20  A    between atoms: _75  and  _76
REMARK   21  A    between atoms: _81  and  _83
REMARK   22  A    between atoms: _83  and  _84
REMARK   23  A    between atoms: _83  and  _86
REMARK   24  A    between atoms: _86  and  _87
REMARK   25  A    between atoms: _92  and  _93
REMARK   26  A    between atoms: _95  and  _97
REMARK   27  A    between atoms: _97  and  _98
REMARK   28  A    between atoms: _97  and  _100
REMARK   29  A    between atoms: _100  and  _101
REMARK   30  A    between atoms: _104  and  _106
REMARK   31  A    between atoms: _106  and  _107
REMARK   32  A    between atoms: _106  and  _109
REMARK   33  A    between atoms: _109  and  _110
REMARK   34  A    between atoms: _110  and  _111
REMARK   35  A    between atoms: _113  and  _115
REMARK   36  A    between atoms: _115  and  _116
REMARK   37  A    between atoms: _115  and  _118
REMARK   38  A    between atoms: _118  and  _119
REMARK   39  A    between atoms: _122  and  _124
REMARK   40  A    between atoms: _124  and  _125
REMARK   41  A    between atoms: _124  and  _127
REMARK   42  A    between atoms: _127  and  _128
REMARK   43  A    between atoms: _128  and  _130
REMARK   44  A    between atoms: _130  and  ZN_440
REMARK   45  A    between atoms: _132  and  _133
REMARK   46  A    between atoms: _138  and  _140
REMARK   47  A    between atoms: _140  and  _141
REMARK   48  A    between atoms: _140  and  _143
REMARK   49  A    between atoms: _143  and  _144
REMARK   50  A    between atoms: _150  and  _152
REMARK   51  A    between atoms: _152  and  _153
REMARK   52  A    between atoms: _152  and  _155
REMARK   53  A    between atoms: _155  and  _156
REMARK   54  A    between atoms: _156  and  _157
REMARK   55  A    between atoms: _157  and  _158
REMARK   56  A    between atoms: _167  and  _169
REMARK   57  A    between atoms: _169  and  _170
REMARK   58  A    between atoms: _169  and  _172
REMARK   59  A    between atoms: _172  and  _173
REMARK   60  A    between atoms: _178  and  _179
REMARK   61  A    between atoms: _181  and  _183
REMARK   62  A    between atoms: _183  and  _184
REMARK   63  A    between atoms: _183  and  _186
REMARK   64  A    between atoms: _186  and  _187
REMARK   65  A    between atoms: _189  and  _191
REMARK   66  A    between atoms: _191  and  _192
REMARK   67  A    between atoms: _191  and  _194
REMARK   68  A    between atoms: _194  and  _195
REMARK   69  A    between atoms: _200  and  _201
REMARK   70  A    between atoms: _203  and  _205
REMARK   71  A    between atoms: _205  and  _206
REMARK   72  A    between atoms: _205  and  _208
REMARK   73  A    between atoms: _208  and  _209
REMARK   74  A    between atoms: _209  and  _210
REMARK   75  A    between atoms: _210  and  _211
REMARK   76  A    between atoms: _211  and  _212
REMARK   77  A    between atoms: _216  and  _218
REMARK   78  A    between atoms: _218  and  _219
REMARK   79  A    between atoms: _218  and  _221
REMARK   80  A    between atoms: _221  and  _222
REMARK   81  A    between atoms: _225  and  _227
REMARK   82  A    between atoms: _227  and  _228
REMARK   83  A    between atoms: _227  and  _230
REMARK   84  A    between atoms: _230  and  _231
REMARK   85  A    between atoms: _234  and  _236
REMARK   86  A    between atoms: _236  and  _237
REMARK   87  A    between atoms: _236  and  _239
REMARK   88  A    between atoms: _239  and  _240
REMARK   89  A    between atoms: _243  and  _245
REMARK   90  A    between atoms: _245  and  _246
REMARK   91  A    between atoms: _245  and  _248
REMARK   92  A    between atoms: _248  and  _249
REMARK   93  A    between atoms: _255  and  _257
REMARK   94  A    between atoms: _257  and  _258
REMARK   95  A    between atoms: _257  and  _260
REMARK   96  A    between atoms: _260  and  _261
REMARK   97  A    between atoms: _261  and  _262
REMARK   98  A    between atoms: _262  and  _263
REMARK   99  A    between atoms: _272  and  _274
REMARK  100  A    between atoms: _274  and  _275
REMARK  101  A    between atoms: _274  and  _277
REMARK  102  A    between atoms: _277  and  _278
REMARK  103  A    between atoms: _283  and  _284
REMARK  104  A    between atoms: _286  and  _288
REMARK  105  A    between atoms: _288  and  _289
REMARK  106  A    between atoms: _288  and  _291
REMARK  107  A    between atoms: _291  and  _292
REMARK  108  A    between atoms: _295  and  _297
REMARK  109  A    between atoms: _297  and  _298
REMARK  110  A    between atoms: _297  and  _300
REMARK  111  A    between atoms: _300  and  _301
REMARK  112  A    between atoms: _311  and  _313
REMARK  113  A    between atoms: _313  and  _314
REMARK  114  A    between atoms: _313  and  _316
REMARK  115  A    between atoms: _316  and  _317
REMARK  116  A    between atoms: _322  and  _324
REMARK  117  A    between atoms: _324  and  _325
REMARK  118  A    between atoms: _324  and  _327
REMARK  119  A    between atoms: _327  and  _328
REMARK  120  A    between atoms: _332  and  ZN_440
REMARK  121  A    between atoms: _333  and  _335
REMARK  122  A    between atoms: _335  and  _336
REMARK  123  A    between atoms: _335  and  _338
REMARK  124  A    between atoms: _338  and  _339
REMARK  125  A    between atoms: _342  and  _344
REMARK  126  A    between atoms: _344  and  _345
REMARK  127  A    between atoms: _347  and  _349
REMARK  128  A    between atoms: _349  and  _350
REMARK  129  A    between atoms: _349  and  _352
REMARK  130  A    between atoms: _352  and  _353
REMARK  131  A    between atoms: _356  and  _358
REMARK  132  A    between atoms: _358  and  _359
REMARK  133  A    between atoms: _358  and  _361
REMARK  134  A    between atoms: _361  and  _362
REMARK  135  A    between atoms: _365  and  _367
REMARK  136  A    between atoms: _367  and  _368
REMARK  137  A    between atoms: _371  and  _373
REMARK  138  A    between atoms: _373  and  _374
REMARK  139  A    between atoms: _373  and  _376
REMARK  140  A    between atoms: _376  and  _377
REMARK  141  A    between atoms: _382  and  _383
REMARK  142  A    between atoms: _385  and  _387
REMARK  143  A    between atoms: _387  and  _388
REMARK  144  A    between atoms: _387  and  _390
REMARK  145  A    between atoms: _390  and  _391
REMARK  146  A    between atoms: _394  and  _396
REMARK  147  A    between atoms: _396  and  _397
REMARK  148  A    between atoms: _396  and  _399
REMARK  149  A    between atoms: _399  and  _400
REMARK  150  A    between atoms: _400  and  _401
REMARK  151  A    between atoms: _404  and  _406
REMARK  152  A    between atoms: _406  and  _407
REMARK  153  A    between atoms: _406  and  _409
REMARK  154  A    between atoms: _409  and  _410
REMARK  155  A    between atoms: _410  and  _411
REMARK  156  A    between atoms: _411  and  _412
REMARK  157  A    between atoms: _421  and  _423
REMARK  158  A    between atoms: _423  and  _424
REMARK  159  A    between atoms: _426  and  _428
REMARK  160  A    between atoms: _428  and  _429
REMARK  161  A    between atoms: _428  and  _431
REMARK  162  A    between atoms: _431  and  _432
REMARK  163  A    between atoms: _435  and  _437
REMARK  164  A    between atoms: _437  and  _438
REMARK                            x       y       z     vdW  Elec       q    Type
REMARK                         _______ _______ _______ _____ _____    ______ ____
ROOT
ATOM      1  O   HOH     1      32.949  61.688   0.587  0.00  0.00    +0.000 OA
ENDROOT
TORSDOF 0
REMARK  Name = ../refined-set-2016/3d52/3d52_pocket.pdb
REMARK  164 active torsions:
REMARK  status: ('A' for Active; 'I' for Inactive)
REMARK    1  A    between atoms: _1  and  _3
REMARK    2  A    between atoms: _14  and  _17
REMARK    3  A    between atoms: _17  and  _18
REMARK    4  A    between atoms: _25  and  _26
REMARK    5  A    between atoms: _33  and  _34
REMARK    6  A    between atoms: _39  and  _41
REMARK    7  A    between atoms: _41  and  _42
REMARK    8  A    between atoms: _44  and  _46
REMARK    9  A    between atoms: _46  and  _47
REMARK   10  A    between atoms: _46  and  _49
REMARK   11  A    between atoms: _49  and  _50
REMARK   12  A    between atoms: _60  and  _62
REMARK   13  A    between atoms: _62  and  _63
REMARK   14  A    between atoms: _62  and  _65
REMARK   15  A    between atoms: _65  and  _66
REMARK   16  A    between atoms: _69  and  _71
REMARK   17  A    between atoms: _71  and  _72
REMARK   18  A    between atoms: _71  and  _74
REMARK   19  A    between atoms: _74  and  _75
REMARK   20  A    between atoms: _75  and  _76
REMARK   21  A    between atoms: _81  and  _83
REMARK   22  A    between atoms: _83  and  _84
REMARK   23  A    between atoms: _83  and  _86
REMARK   24  A    between atoms: _86  and  _87
REMARK   25  A    between atoms: _92  and  _93
REMARK   26  A    between atoms: _95  and  _97
REMARK   27  A    between atoms: _97  and  _98
REMARK   28  A    between atoms: _97  and  _100
REMARK   29  A    between atoms: _100  and  _101
REMARK   30  A    between atoms: _104  and  _106
REMARK   31  A    between atoms: _106  and  _107
REMARK   32  A    between atoms: _106  and  _109
REMARK   33  A    between atoms: _109  and  _110
REMARK   34  A    between atoms: _110  and  _111
REMARK   35  A    between atoms: _113  and  _115
REMARK   36  A    between atoms: _115  and  _116
REMARK   37  A    between atoms: _115  and  _118
REMARK   38  A    between atoms: _118  and  _119
REMARK   39  A    between atoms: _122  and  _124
REMARK   40  A    between atoms: _124  and  _125
REMARK   41  A    between atoms: _124  and  _127
REMARK   42  A    between atoms: _127  and  _128
REMARK   43  A    between atoms: _128  and  _130
REMARK   44  A    between atoms: _130  and  ZN_440
REMARK   45  A    between atoms: _132  and  _133
REMARK   46  A    between atoms: _138  and  _140
REMARK   47  A    between atoms: _140  and  _141
REMARK   48  A    between atoms: _140  and  _143
REMARK   49  A    between atoms: _143  and  _144
REMARK   50  A    between atoms: _150  and  _152
REMARK   51  A    between atoms: _152  and  _153
REMARK   52  A    between atoms: _152  and  _155
REMARK   53  A    between atoms: _155  and  _156
REMARK   54  A    between atoms: _156  and  _157
REMARK   55  A    between atoms: _157  and  _158
REMARK   56  A    between atoms: _167  and  _169
REMARK   57  A    between atoms: _169  and  _170
REMARK   58  A    between atoms: _169  and  _172
REMARK   59  A    between atoms: _172  and  _173
REMARK   60  A    between atoms: _178  and  _179
REMARK   61  A    between atoms: _181  and  _183
REMARK   62  A    between atoms: _183  and  _184
REMARK   63  A    between atoms: _183  and  _186
REMARK   64  A    between atoms: _186  and  _187
REMARK   65  A    between atoms: _189  and  _191
REMARK   66  A    between atoms: _191  and  _192
REMARK   67  A    between atoms: _191  and  _194
REMARK   68  A    between atoms: _194  and  _195
REMARK   69  A    between atoms: _200  and  _201
REMARK   70  A    between atoms: _203  and  _205
REMARK   71  A    between atoms: _205  and  _206
REMARK   72  A    between atoms: _205  and  _208
REMARK   73  A    between atoms: _208  and  _209
REMARK   74  A    between atoms: _209  and  _210
REMARK   75  A    between atoms: _210  and  _211
REMARK   76  A    between atoms: _211  and  _212
REMARK   77  A    between atoms: _216  and  _218
REMARK   78  A    between atoms: _218  and  _219
REMARK   79  A    between atoms: _218  and  _221
REMARK   80  A    between atoms: _221  and  _222
REMARK   81  A    between atoms: _225  and  _227
REMARK   82  A    between atoms: _227  and  _228
REMARK   83  A    between atoms: _227  and  _230
REMARK   84  A    between atoms: _230  and  _231
REMARK   85  A    between atoms: _234  and  _236
REMARK   86  A    between atoms: _236  and  _237
REMARK   87  A    between atoms: _236  and  _239
REMARK   88  A    between atoms: _239  and  _240
REMARK   89  A    between atoms: _243  and  _245
REMARK   90  A    between atoms: _245  and  _246
REMARK   91  A    between atoms: _245  and  _248
REMARK   92  A    between atoms: _248  and  _249
REMARK   93  A    between atoms: _255  and  _257
REMARK   94  A    between atoms: _257  and  _258
REMARK   95  A    between atoms: _257  and  _260
REMARK   96  A    between atoms: _260  and  _261
REMARK   97  A    between atoms: _261  and  _262
REMARK   98  A    between atoms: _262  and  _263
REMARK   99  A    between atoms: _272  and  _274
REMARK  100  A    between atoms: _274  and  _275
REMARK  101  A    between atoms: _274  and  _277
REMARK  102  A    between atoms: _277  and  _278
REMARK  103  A    between atoms: _283  and  _284
REMARK  104  A    between atoms: _286  and  _288
REMARK  105  A    between atoms: _288  and  _289
REMARK  106  A    between atoms: _288  and  _291
REMARK  107  A    between atoms: _291  and  _292
REMARK  108  A    between atoms: _295  and  _297
REMARK  109  A    between atoms: _297  and  _298
REMARK  110  A    between atoms: _297  and  _300
REMARK  111  A    between atoms: _300  and  _301
REMARK  112  A    between atoms: _311  and  _313
REMARK  113  A    between atoms: _313  and  _314
REMARK  114  A    between atoms: _313  and  _316
REMARK  115  A    between atoms: _316  and  _317
REMARK  116  A    between atoms: _322  and  _324
REMARK  117  A    between atoms: _324  and  _325
REMARK  118  A    between atoms: _324  and  _327
REMARK  119  A    between atoms: _327  and  _328
REMARK  120  A    between atoms: _332  and  ZN_440
REMARK  121  A    between atoms: _333  and  _335
REMARK  122  A    between atoms: _335  and  _336
REMARK  123  A    between atoms: _335  and  _338
REMARK  124  A    between atoms: _338  and  _339
REMARK  125  A    between atoms: _342  and  _344
REMARK  126  A    between atoms: _344  and  _345
REMARK  127  A    between atoms: _347  and  _349
REMARK  128  A    between atoms: _349  and  _350
REMARK  129  A    between atoms: _349  and  _352
REMARK  130  A    between atoms: _352  and  _353
REMARK  131  A    between atoms: _356  and  _358
REMARK  132  A    between atoms: _358  and  _359
REMARK  133  A    between atoms: _358  and  _361
REMARK  134  A    between atoms: _361  and  _362
REMARK  135  A    between atoms: _365  and  _367
REMARK  136  A    between atoms: _367  and  _368
REMARK  137  A    between atoms: _371  and  _373
REMARK  138  A    between atoms: _373  and  _374
REMARK  139  A    between atoms: _373  and  _376
REMARK  140  A    between atoms: _376  and  _377
REMARK  141  A    between atoms: _382  and  _383
REMARK  142  A    between atoms: _385  and  _387
REMARK  143  A    between atoms: _387  and  _388
REMARK  144  A    between atoms: _387  and  _390
REMARK  145  A    between atoms: _390  and  _391
REMARK  146  A    between atoms: _394  and  _396
REMARK  147  A    between atoms: _396  and  _397
REMARK  148  A    between atoms: _396  and  _399
REMARK  149  A    between atoms: _399  and  _400
REMARK  150  A    between atoms: _400  and  _401
REMARK  151  A    between atoms: _404  and  _406
REMARK  152  A    between atoms: _406  and  _407
REMARK  153  A    between atoms: _406  and  _409
REMARK  154  A    between atoms: _409  and  _410
REMARK  155  A    between atoms: _410  and  _411
REMARK  156  A    between atoms: _411  and  _412
REMARK  157  A    between atoms: _421  and  _423
REMARK  158  A    between atoms: _423  and  _424
REMARK  159  A    between atoms: _426  and  _428
REMARK  160  A    between atoms: _428  and  _429
REMARK  161  A    between atoms: _428  and  _431
REMARK  162  A    between atoms: _431  and  _432
REMARK  163  A    between atoms: _435  and  _437
REMARK  164  A    between atoms: _437  and  _438
REMARK                            x       y       z     vdW  Elec       q    Type
REMARK                         _______ _______ _______ _____ _____    ______ ____
ROOT
ATOM      1  O   HOH     1      39.952  61.635   6.600  0.00  0.00    +0.000 OA
ENDROOT
TORSDOF 0
REMARK  Name = ../refined-set-2016/3d52/3d52_pocket.pdb
REMARK  164 active torsions:
REMARK  status: ('A' for Active; 'I' for Inactive)
REMARK    1  A    between atoms: _1  and  _3
REMARK    2  A    between atoms: _14  and  _17
REMARK    3  A    between atoms: _17  and  _18
REMARK    4  A    between atoms: _25  and  _26
REMARK    5  A    between atoms: _33  and  _34
REMARK    6  A    between atoms: _39  and  _41
REMARK    7  A    between atoms: _41  and  _42
REMARK    8  A    between atoms: _44  and  _46
REMARK    9  A    between atoms: _46  and  _47
REMARK   10  A    between atoms: _46  and  _49
REMARK   11  A    between atoms: _49  and  _50
REMARK   12  A    between atoms: _60  and  _62
REMARK   13  A    between atoms: _62  and  _63
REMARK   14  A    between atoms: _62  and  _65
REMARK   15  A    between atoms: _65  and  _66
REMARK   16  A    between atoms: _69  and  _71
REMARK   17  A    between atoms: _71  and  _72
REMARK   18  A    between atoms: _71  and  _74
REMARK   19  A    between atoms: _74  and  _75
REMARK   20  A    between atoms: _75  and  _76
REMARK   21  A    between atoms: _81  and  _83
REMARK   22  A    between atoms: _83  and  _84
REMARK   23  A    between atoms: _83  and  _86
REMARK   24  A    between atoms: _86  and  _87
REMARK   25  A    between atoms: _92  and  _93
REMARK   26  A    between atoms: _95  and  _97
REMARK   27  A    between atoms: _97  and  _98
REMARK   28  A    between atoms: _97  and  _100
REMARK   29  A    between atoms: _100  and  _101
REMARK   30  A    between atoms: _104  and  _106
REMARK   31  A    between atoms: _106  and  _107
REMARK   32  A    between atoms: _106  and  _109
REMARK   33  A    between atoms: _109  and  _110
REMARK   34  A    between atoms: _110  and  _111
REMARK   35  A    between atoms: _113  and  _115
REMARK   36  A    between atoms: _115  and  _116
REMARK   37  A    between atoms: _115  and  _118
REMARK   38  A    between atoms: _118  and  _119
REMARK   39  A    between atoms: _122  and  _124
REMARK   40  A    between atoms: _124  and  _125
REMARK   41  A    between atoms: _124  and  _127
REMARK   42  A    between atoms: _127  and  _128
REMARK   43  A    between atoms: _128  and  _130
REMARK   44  A    between atoms: _130  and  ZN_440
REMARK   45  A    between atoms: _132  and  _133
REMARK   46  A    between atoms: _138  and  _140
REMARK   47  A    between atoms: _140  and  _141
REMARK   48  A    between atoms: _140  and  _143
REMARK   49  A    between atoms: _143  and  _144
REMARK   50  A    between atoms: _150  and  _152
REMARK   51  A    between atoms: _152  and  _153
REMARK   52  A    between atoms: _152  and  _155
REMARK   53  A    between atoms: _155  and  _156
REMARK   54  A    between atoms: _156  and  _157
REMARK   55  A    between atoms: _157  and  _158
REMARK   56  A    between atoms: _167  and  _169
REMARK   57  A    between atoms: _169  and  _170
REMARK   58  A    between atoms: _169  and  _172
REMARK   59  A    between atoms: _172  and  _173
REMARK   60  A    between atoms: _178  and  _179
REMARK   61  A    between atoms: _181  and  _183
REMARK   62  A    between atoms: _183  and  _184
REMARK   63  A    between atoms: _183  and  _186
REMARK   64  A    between atoms: _186  and  _187
REMARK   65  A    between atoms: _189  and  _191
REMARK   66  A    between atoms: _191  and  _192
REMARK   67  A    between atoms: _191  and  _194
REMARK   68  A    between atoms: _194  and  _195
REMARK   69  A    between atoms: _200  and  _201
REMARK   70  A    between atoms: _203  and  _205
REMARK   71  A    between atoms: _205  and  _206
REMARK   72  A    between atoms: _205  and  _208
REMARK   73  A    between atoms: _208  and  _209
REMARK   74  A    between atoms: _209  and  _210
REMARK   75  A    between atoms: _210  and  _211
REMARK   76  A    between atoms: _211  and  _212
REMARK   77  A    between atoms: _216  and  _218
REMARK   78  A    between atoms: _218  and  _219
REMARK   79  A    between atoms: _218  and  _221
REMARK   80  A    between atoms: _221  and  _222
REMARK   81  A    between atoms: _225  and  _227
REMARK   82  A    between atoms: _227  and  _228
REMARK   83  A    between atoms: _227  and  _230
REMARK   84  A    between atoms: _230  and  _231
REMARK   85  A    between atoms: _234  and  _236
REMARK   86  A    between atoms: _236  and  _237
REMARK   87  A    between atoms: _236  and  _239
REMARK   88  A    between atoms: _239  and  _240
REMARK   89  A    between atoms: _243  and  _245
REMARK   90  A    between atoms: _245  and  _246
REMARK   91  A    between atoms: _245  and  _248
REMARK   92  A    between atoms: _248  and  _249
REMARK   93  A    between atoms: _255  and  _257
REMARK   94  A    between atoms: _257  and  _258
REMARK   95  A    between atoms: _257  and  _260
REMARK   96  A    between atoms: _260  and  _261
REMARK   97  A    between atoms: _261  and  _262
REMARK   98  A    between atoms: _262  and  _263
REMARK   99  A    between atoms: _272  and  _274
REMARK  100  A    between atoms: _274  and  _275
REMARK  101  A    between atoms: _274  and  _277
REMARK  102  A    between atoms: _277  and  _278
REMARK  103  A    between atoms: _283  and  _284
REMARK  104  A    between atoms: _286  and  _288
REMARK  105  A    between atoms: _288  and  _289
REMARK  106  A    between atoms: _288  and  _291
REMARK  107  A    between atoms: _291  and  _292
REMARK  108  A    between atoms: _295  and  _297
REMARK  109  A    between atoms: _297  and  _298
REMARK  110  A    between atoms: _297  and  _300
REMARK  111  A    between atoms: _300  and  _301
REMARK  112  A    between atoms: _311  and  _313
REMARK  113  A    between atoms: _313  and  _314
REMARK  114  A    between atoms: _313  and  _316
REMARK  115  A    between atoms: _316  and  _317
REMARK  116  A    between atoms: _322  and  _324
REMARK  117  A    between atoms: _324  and  _325
REMARK  118  A    between atoms: _324  and  _327
REMARK  119  A    between atoms: _327  and  _328
REMARK  120  A    between atoms: _332  and  ZN_440
REMARK  121  A    between atoms: _333  and  _335
REMARK  122  A    between atoms: _335  and  _336
REMARK  123  A    between atoms: _335  and  _338
REMARK  124  A    between atoms: _338  and  _339
REMARK  125  A    between atoms: _342  and  _344
REMARK  126  A    between atoms: _344  and  _345
REMARK  127  A    between atoms: _347  and  _349
REMARK  128  A    between atoms: _349  and  _350
REMARK  129  A    between atoms: _349  and  _352
REMARK  130  A    between atoms: _352  and  _353
REMARK  131  A    between atoms: _356  and  _358
REMARK  132  A    between atoms: _358  and  _359
REMARK  133  A    between atoms: _358  and  _361
REMARK  134  A    between atoms: _361  and  _362
REMARK  135  A    between atoms: _365  and  _367
REMARK  136  A    between atoms: _367  and  _368
REMARK  137  A    between atoms: _371  and  _373
REMARK  138  A    between atoms: _373  and  _374
REMARK  139  A    between atoms: _373  and  _376
REMARK  140  A    between atoms: _376  and  _377
REMARK  141  A    between atoms: _382  and  _383
REMARK  142  A    between atoms: _385  and  _387
REMARK  143  A    between atoms: _387  and  _388
REMARK  144  A    between atoms: _387  and  _390
REMARK  145  A    between atoms: _390  and  _391
REMARK  146  A    between atoms: _394  and  _396
REMARK  147  A    between atoms: _396  and  _397
REMARK  148  A    between atoms: _396  and  _399
REMARK  149  A    between atoms: _399  and  _400
REMARK  150  A    between atoms: _400  and  _401
REMARK  151  A    between atoms: _404  and  _406
REMARK  152  A    between atoms: _406  and  _407
REMARK  153  A    between atoms: _406  and  _409
REMARK  154  A    between atoms: _409  and  _410
REMARK  155  A    between atoms: _410  and  _411
REMARK  156  A    between atoms: _411  and  _412
REMARK  157  A    between atoms: _421  and  _423
REMARK  158  A    between atoms: _423  and  _424
REMARK  159  A    between atoms: _426  and  _428
REMARK  160  A    between atoms: _428  and  _429
REMARK  161  A    between atoms: _428  and  _431
REMARK  162  A    between atoms: _431  and  _432
REMARK  163  A    between atoms: _435  and  _437
REMARK  164  A    between atoms: _437  and  _438
REMARK                            x       y       z     vdW  Elec       q    Type
REMARK                         _______ _______ _______ _____ _____    ______ ____
ROOT
ATOM      1  O   HOH     1      38.481  61.104   8.914  0.00  0.00    +0.000 OA
ENDROOT
TORSDOF 0
REMARK  Name = ../refined-set-2016/3d52/3d52_pocket.pdb
REMARK  164 active torsions:
REMARK  status: ('A' for Active; 'I' for Inactive)
REMARK    1  A    between atoms: _1  and  _3
REMARK    2  A    between atoms: _14  and  _17
REMARK    3  A    between atoms: _17  and  _18
REMARK    4  A    between atoms: _25  and  _26
REMARK    5  A    between atoms: _33  and  _34
REMARK    6  A    between atoms: _39  and  _41
REMARK    7  A    between atoms: _41  and  _42
REMARK    8  A    between atoms: _44  and  _46
REMARK    9  A    between atoms: _46  and  _47
REMARK   10  A    between atoms: _46  and  _49
REMARK   11  A    between atoms: _49  and  _50
REMARK   12  A    between atoms: _60  and  _62
REMARK   13  A    between atoms: _62  and  _63
REMARK   14  A    between atoms: _62  and  _65
REMARK   15  A    between atoms: _65  and  _66
REMARK   16  A    between atoms: _69  and  _71
REMARK   17  A    between atoms: _71  and  _72
REMARK   18  A    between atoms: _71  and  _74
REMARK   19  A    between atoms: _74  and  _75
REMARK   20  A    between atoms: _75  and  _76
REMARK   21  A    between atoms: _81  and  _83
REMARK   22  A    between atoms: _83  and  _84
REMARK   23  A    between atoms: _83  and  _86
REMARK   24  A    between atoms: _86  and  _87
REMARK   25  A    between atoms: _92  and  _93
REMARK   26  A    between atoms: _95  and  _97
REMARK   27  A    between atoms: _97  and  _98
REMARK   28  A    between atoms: _97  and  _100
REMARK   29  A    between atoms: _100  and  _101
REMARK   30  A    between atoms: _104  and  _106
REMARK   31  A    between atoms: _106  and  _107
REMARK   32  A    between atoms: _106  and  _109
REMARK   33  A    between atoms: _109  and  _110
REMARK   34  A    between atoms: _110  and  _111
REMARK   35  A    between atoms: _113  and  _115
REMARK   36  A    between atoms: _115  and  _116
REMARK   37  A    between atoms: _115  and  _118
REMARK   38  A    between atoms: _118  and  _119
REMARK   39  A    between atoms: _122  and  _124
REMARK   40  A    between atoms: _124  and  _125
REMARK   41  A    between atoms: _124  and  _127
REMARK   42  A    between atoms: _127  and  _128
REMARK   43  A    between atoms: _128  and  _130
REMARK   44  A    between atoms: _130  and  ZN_440
REMARK   45  A    between atoms: _132  and  _133
REMARK   46  A    between atoms: _138  and  _140
REMARK   47  A    between atoms: _140  and  _141
REMARK   48  A    between atoms: _140  and  _143
REMARK   49  A    between atoms: _143  and  _144
REMARK   50  A    between atoms: _150  and  _152
REMARK   51  A    between atoms: _152  and  _153
REMARK   52  A    between atoms: _152  and  _155
REMARK   53  A    between atoms: _155  and  _156
REMARK   54  A    between atoms: _156  and  _157
REMARK   55  A    between atoms: _157  and  _158
REMARK   56  A    between atoms: _167  and  _169
REMARK   57  A    between atoms: _169  and  _170
REMARK   58  A    between atoms: _169  and  _172
REMARK   59  A    between atoms: _172  and  _173
REMARK   60  A    between atoms: _178  and  _179
REMARK   61  A    between atoms: _181  and  _183
REMARK   62  A    between atoms: _183  and  _184
REMARK   63  A    between atoms: _183  and  _186
REMARK   64  A    between atoms: _186  and  _187
REMARK   65  A    between atoms: _189  and  _191
REMARK   66  A    between atoms: _191  and  _192
REMARK   67  A    between atoms: _191  and  _194
REMARK   68  A    between atoms: _194  and  _195
REMARK   69  A    between atoms: _200  and  _201
REMARK   70  A    between atoms: _203  and  _205
REMARK   71  A    between atoms: _205  and  _206
REMARK   72  A    between atoms: _205  and  _208
REMARK   73  A    between atoms: _208  and  _209
REMARK   74  A    between atoms: _209  and  _210
REMARK   75  A    between atoms: _210  and  _211
REMARK   76  A    between atoms: _211  and  _212
REMARK   77  A    between atoms: _216  and  _218
REMARK   78  A    between atoms: _218  and  _219
REMARK   79  A    between atoms: _218  and  _221
REMARK   80  A    between atoms: _221  and  _222
REMARK   81  A    between atoms: _225  and  _227
REMARK   82  A    between atoms: _227  and  _228
REMARK   83  A    between atoms: _227  and  _230
REMARK   84  A    between atoms: _230  and  _231
REMARK   85  A    between atoms: _234  and  _236
REMARK   86  A    between atoms: _236  and  _237
REMARK   87  A    between atoms: _236  and  _239
REMARK   88  A    between atoms: _239  and  _240
REMARK   89  A    between atoms: _243  and  _245
REMARK   90  A    between atoms: _245  and  _246
REMARK   91  A    between atoms: _245  and  _248
REMARK   92  A    between atoms: _248  and  _249
REMARK   93  A    between atoms: _255  and  _257
REMARK   94  A    between atoms: _257  and  _258
REMARK   95  A    between atoms: _257  and  _260
REMARK   96  A    between atoms: _260  and  _261
REMARK   97  A    between atoms: _261  and  _262
REMARK   98  A    between atoms: _262  and  _263
REMARK   99  A    between atoms: _272  and  _274
REMARK  100  A    between atoms: _274  and  _275
REMARK  101  A    between atoms: _274  and  _277
REMARK  102  A    between atoms: _277  and  _278
REMARK  103  A    between atoms: _283  and  _284
REMARK  104  A    between atoms: _286  and  _288
REMARK  105  A    between atoms: _288  and  _289
REMARK  106  A    between atoms: _288  and  _291
REMARK  107  A    between atoms: _291  and  _292
REMARK  108  A    between atoms: _295  and  _297
REMARK  109  A    between atoms: _297  and  _298
REMARK  110  A    between atoms: _297  and  _300
REMARK  111  A    between atoms: _300  and  _301
REMARK  112  A    between atoms: _311  and  _313
REMARK  113  A    between atoms: _313  and  _314
REMARK  114  A    between atoms: _313  and  _316
REMARK  115  A    between atoms: _316  and  _317
REMARK  116  A    between atoms: _322  and  _324
REMARK  117  A    between atoms: _324  and  _325
REMARK  118  A    between atoms: _324  and  _327
REMARK  119  A    between atoms: _327  and  _328
REMARK  120  A    between atoms: _332  and  ZN_440
REMARK  121  A    between atoms: _333  and  _335
REMARK  122  A    between atoms: _335  and  _336
REMARK  123  A    between atoms: _335  and  _338
REMARK  124  A    between atoms: _338  and  _339
REMARK  125  A    between atoms: _342  and  _344
REMARK  126  A    between atoms: _344  and  _345
REMARK  127  A    between atoms: _347  and  _349
REMARK  128  A    between atoms: _349  and  _350
REMARK  129  A    between atoms: _349  and  _352
REMARK  130  A    between atoms: _352  and  _353
REMARK  131  A    between atoms: _356  and  _358
REMARK  132  A    between atoms: _358  and  _359
REMARK  133  A    between atoms: _358  and  _361
REMARK  134  A    between atoms: _361  and  _362
REMARK  135  A    between atoms: _365  and  _367
REMARK  136  A    between atoms: _367  and  _368
REMARK  137  A    between atoms: _371  and  _373
REMARK  138  A    between atoms: _373  and  _374
REMARK  139  A    between atoms: _373  and  _376
REMARK  140  A    between atoms: _376  and  _377
REMARK  141  A    between atoms: _382  and  _383
REMARK  142  A    between atoms: _385  and  _387
REMARK  143  A    between atoms: _387  and  _388
REMARK  144  A    between atoms: _387  and  _390
REMARK  145  A    between atoms: _390  and  _391
REMARK  146  A    between atoms: _394  and  _396
REMARK  147  A    between atoms: _396  and  _397
REMARK  148  A    between atoms: _396  and  _399
REMARK  149  A    between atoms: _399  and  _400
REMARK  150  A    between atoms: _400  and  _401
REMARK  151  A    between atoms: _404  and  _406
REMARK  152  A    between atoms: _406  and  _407
REMARK  153  A    between atoms: _406  and  _409
REMARK  154  A    between atoms: _409  and  _410
REMARK  155  A    between atoms: _410  and  _411
REMARK  156  A    between atoms: _411  and  _412
REMARK  157  A    between atoms: _421  and  _423
REMARK  158  A    between atoms: _423  and  _424
REMARK  159  A    between atoms: _426  and  _428
REMARK  160  A    between atoms: _428  and  _429
REMARK  161  A    between atoms: _428  and  _431
REMARK  162  A    between atoms: _431  and  _432
REMARK  163  A    between atoms: _435  and  _437
REMARK  164  A    between atoms: _437  and  _438
REMARK                            x       y       z     vdW  Elec       q    Type
REMARK                         _______ _______ _______ _____ _____    ______ ____
ROOT
ATOM      1  O   HOH     1      37.490  57.941  11.459  0.00  0.00    +0.000 OA
ENDROOT
TORSDOF 0
REMARK  Name = ../refined-set-2016/3d52/3d52_pocket.pdb
REMARK  164 active torsions:
REMARK  status: ('A' for Active; 'I' for Inactive)
REMARK    1  A    between atoms: _1  and  _3
REMARK    2  A    between atoms: _14  and  _17
REMARK    3  A    between atoms: _17  and  _18
REMARK    4  A    between atoms: _25  and  _26
REMARK    5  A    between atoms: _33  and  _34
REMARK    6  A    between atoms: _39  and  _41
REMARK    7  A    between atoms: _41  and  _42
REMARK    8  A    between atoms: _44  and  _46
REMARK    9  A    between atoms: _46  and  _47
REMARK   10  A    between atoms: _46  and  _49
REMARK   11  A    between atoms: _49  and  _50
REMARK   12  A    between atoms: _60  and  _62
REMARK   13  A    between atoms: _62  and  _63
REMARK   14  A    between atoms: _62  and  _65
REMARK   15  A    between atoms: _65  and  _66
REMARK   16  A    between atoms: _69  and  _71
REMARK   17  A    between atoms: _71  and  _72
REMARK   18  A    between atoms: _71  and  _74
REMARK   19  A    between atoms: _74  and  _75
REMARK   20  A    between atoms: _75  and  _76
REMARK   21  A    between atoms: _81  and  _83
REMARK   22  A    between atoms: _83  and  _84
REMARK   23  A    between atoms: _83  and  _86
REMARK   24  A    between atoms: _86  and  _87
REMARK   25  A    between atoms: _92  and  _93
REMARK   26  A    between atoms: _95  and  _97
REMARK   27  A    between atoms: _97  and  _98
REMARK   28  A    between atoms: _97  and  _100
REMARK   29  A    between atoms: _100  and  _101
REMARK   30  A    between atoms: _104  and  _106
REMARK   31  A    between atoms: _106  and  _107
REMARK   32  A    between atoms: _106  and  _109
REMARK   33  A    between atoms: _109  and  _110
REMARK   34  A    between atoms: _110  and  _111
REMARK   35  A    between atoms: _113  and  _115
REMARK   36  A    between atoms: _115  and  _116
REMARK   37  A    between atoms: _115  and  _118
REMARK   38  A    between atoms: _118  and  _119
REMARK   39  A    between atoms: _122  and  _124
REMARK   40  A    between atoms: _124  and  _125
REMARK   41  A    between atoms: _124  and  _127
REMARK   42  A    between atoms: _127  and  _128
REMARK   43  A    between atoms: _128  and  _130
REMARK   44  A    between atoms: _130  and  ZN_440
REMARK   45  A    between atoms: _132  and  _133
REMARK   46  A    between atoms: _138  and  _140
REMARK   47  A    between atoms: _140  and  _141
REMARK   48  A    between atoms: _140  and  _143
REMARK   49  A    between atoms: _143  and  _144
REMARK   50  A    between atoms: _150  and  _152
REMARK   51  A    between atoms: _152  and  _153
REMARK   52  A    between atoms: _152  and  _155
REMARK   53  A    between atoms: _155  and  _156
REMARK   54  A    between atoms: _156  and  _157
REMARK   55  A    between atoms: _157  and  _158
REMARK   56  A    between atoms: _167  and  _169
REMARK   57  A    between atoms: _169  and  _170
REMARK   58  A    between atoms: _169  and  _172
REMARK   59  A    between atoms: _172  and  _173
REMARK   60  A    between atoms: _178  and  _179
REMARK   61  A    between atoms: _181  and  _183
REMARK   62  A    between atoms: _183  and  _184
REMARK   63  A    between atoms: _183  and  _186
REMARK   64  A    between atoms: _186  and  _187
REMARK   65  A    between atoms: _189  and  _191
REMARK   66  A    between atoms: _191  and  _192
REMARK   67  A    between atoms: _191  and  _194
REMARK   68  A    between atoms: _194  and  _195
REMARK   69  A    between atoms: _200  and  _201
REMARK   70  A    between atoms: _203  and  _205
REMARK   71  A    between atoms: _205  and  _206
REMARK   72  A    between atoms: _205  and  _208
REMARK   73  A    between atoms: _208  and  _209
REMARK   74  A    between atoms: _209  and  _210
REMARK   75  A    between atoms: _210  and  _211
REMARK   76  A    between atoms: _211  and  _212
REMARK   77  A    between atoms: _216  and  _218
REMARK   78  A    between atoms: _218  and  _219
REMARK   79  A    between atoms: _218  and  _221
REMARK   80  A    between atoms: _221  and  _222
REMARK   81  A    between atoms: _225  and  _227
REMARK   82  A    between atoms: _227  and  _228
REMARK   83  A    between atoms: _227  and  _230
REMARK   84  A    between atoms: _230  and  _231
REMARK   85  A    between atoms: _234  and  _236
REMARK   86  A    between atoms: _236  and  _237
REMARK   87  A    between atoms: _236  and  _239
REMARK   88  A    between atoms: _239  and  _240
REMARK   89  A    between atoms: _243  and  _245
REMARK   90  A    between atoms: _245  and  _246
REMARK   91  A    between atoms: _245  and  _248
REMARK   92  A    between atoms: _248  and  _249
REMARK   93  A    between atoms: _255  and  _257
REMARK   94  A    between atoms: _257  and  _258
REMARK   95  A    between atoms: _257  and  _260
REMARK   96  A    between atoms: _260  and  _261
REMARK   97  A    between atoms: _261  and  _262
REMARK   98  A    between atoms: _262  and  _263
REMARK   99  A    between atoms: _272  and  _274
REMARK  100  A    between atoms: _274  and  _275
REMARK  101  A    between atoms: _274  and  _277
REMARK  102  A    between atoms: _277  and  _278
REMARK  103  A    between atoms: _283  and  _284
REMARK  104  A    between atoms: _286  and  _288
REMARK  105  A    between atoms: _288  and  _289
REMARK  106  A    between atoms: _288  and  _291
REMARK  107  A    between atoms: _291  and  _292
REMARK  108  A    between atoms: _295  and  _297
REMARK  109  A    between atoms: _297  and  _298
REMARK  110  A    between atoms: _297  and  _300
REMARK  111  A    between atoms: _300  and  _301
REMARK  112  A    between atoms: _311  and  _313
REMARK  113  A    between atoms: _313  and  _314
REMARK  114  A    between atoms: _313  and  _316
REMARK  115  A    between atoms: _316  and  _317
REMARK  116  A    between atoms: _322  and  _324
REMARK  117  A    between atoms: _324  and  _325
REMARK  118  A    between atoms: _324  and  _327
REMARK  119  A    between atoms: _327  and  _328
REMARK  120  A    between atoms: _332  and  ZN_440
REMARK  121  A    between atoms: _333  and  _335
REMARK  122  A    between atoms: _335  and  _336
REMARK  123  A    between atoms: _335  and  _338
REMARK  124  A    between atoms: _338  and  _339
REMARK  125  A    between atoms: _342  and  _344
REMARK  126  A    between atoms: _344  and  _345
REMARK  127  A    between atoms: _347  and  _349
REMARK  128  A    between atoms: _349  and  _350
REMARK  129  A    between atoms: _349  and  _352
REMARK  130  A    between atoms: _352  and  _353
REMARK  131  A    between atoms: _356  and  _358
REMARK  132  A    between atoms: _358  and  _359
REMARK  133  A    between atoms: _358  and  _361
REMARK  134  A    between atoms: _361  and  _362
REMARK  135  A    between atoms: _365  and  _367
REMARK  136  A    between atoms: _367  and  _368
REMARK  137  A    between atoms: _371  and  _373
REMARK  138  A    between atoms: _373  and  _374
REMARK  139  A    between atoms: _373  and  _376
REMARK  140  A    between atoms: _376  and  _377
REMARK  141  A    between atoms: _382  and  _383
REMARK  142  A    between atoms: _385  and  _387
REMARK  143  A    between atoms: _387  and  _388
REMARK  144  A    between atoms: _387  and  _390
REMARK  145  A    between atoms: _390  and  _391
REMARK  146  A    between atoms: _394  and  _396
REMARK  147  A    between atoms: _396  and  _397
REMARK  148  A    between atoms: _396  and  _399
REMARK  149  A    between atoms: _399  and  _400
REMARK  150  A    between atoms: _400  and  _401
REMARK  151  A    between atoms: _404  and  _406
REMARK  152  A    between atoms: _406  and  _407
REMARK  153  A    between atoms: _406  and  _409
REMARK  154  A    between atoms: _409  and  _410
REMARK  155  A    between atoms: _410  and  _411
REMARK  156  A    between atoms: _411  and  _412
REMARK  157  A    between atoms: _421  and  _423
REMARK  158  A    between atoms: _423  and  _424
REMARK  159  A    between atoms: _426  and  _428
REMARK  160  A    between atoms: _428  and  _429
REMARK  161  A    between atoms: _428  and  _431
REMARK  162  A    between atoms: _431  and  _432
REMARK  163  A    between atoms: _435  and  _437
REMARK  164  A    between atoms: _437  and  _438
REMARK                            x       y       z     vdW  Elec       q    Type
REMARK                         _______ _______ _______ _____ _____    ______ ____
ROOT
ATOM      1  O   HOH     1      25.735  71.664   6.150  0.00  0.00    +0.000 OA
ENDROOT
TORSDOF 0
REMARK  Name = ../refined-set-2016/3d52/3d52_pocket.pdb
REMARK  164 active torsions:
REMARK  status: ('A' for Active; 'I' for Inactive)
REMARK    1  A    between atoms: _1  and  _3
REMARK    2  A    between atoms: _14  and  _17
REMARK    3  A    between atoms: _17  and  _18
REMARK    4  A    between atoms: _25  and  _26
REMARK    5  A    between atoms: _33  and  _34
REMARK    6  A    between atoms: _39  and  _41
REMARK    7  A    between atoms: _41  and  _42
REMARK    8  A    between atoms: _44  and  _46
REMARK    9  A    between atoms: _46  and  _47
REMARK   10  A    between atoms: _46  and  _49
REMARK   11  A    between atoms: _49  and  _50
REMARK   12  A    between atoms: _60  and  _62
REMARK   13  A    between atoms: _62  and  _63
REMARK   14  A    between atoms: _62  and  _65
REMARK   15  A    between atoms: _65  and  _66
REMARK   16  A    between atoms: _69  and  _71
REMARK   17  A    between atoms: _71  and  _72
REMARK   18  A    between atoms: _71  and  _74
REMARK   19  A    between atoms: _74  and  _75
REMARK   20  A    between atoms: _75  and  _76
REMARK   21  A    between atoms: _81  and  _83
REMARK   22  A    between atoms: _83  and  _84
REMARK   23  A    between atoms: _83  and  _86
REMARK   24  A    between atoms: _86  and  _87
REMARK   25  A    between atoms: _92  and  _93
REMARK   26  A    between atoms: _95  and  _97
REMARK   27  A    between atoms: _97  and  _98
REMARK   28  A    between atoms: _97  and  _100
REMARK   29  A    between atoms: _100  and  _101
REMARK   30  A    between atoms: _104  and  _106
REMARK   31  A    between atoms: _106  and  _107
REMARK   32  A    between atoms: _106  and  _109
REMARK   33  A    between atoms: _109  and  _110
REMARK   34  A    between atoms: _110  and  _111
REMARK   35  A    between atoms: _113  and  _115
REMARK   36  A    between atoms: _115  and  _116
REMARK   37  A    between atoms: _115  and  _118
REMARK   38  A    between atoms: _118  and  _119
REMARK   39  A    between atoms: _122  and  _124
REMARK   40  A    between atoms: _124  and  _125
REMARK   41  A    between atoms: _124  and  _127
REMARK   42  A    between atoms: _127  and  _128
REMARK   43  A    between atoms: _128  and  _130
REMARK   44  A    between atoms: _130  and  ZN_440
REMARK   45  A    between atoms: _132  and  _133
REMARK   46  A    between atoms: _138  and  _140
REMARK   47  A    between atoms: _140  and  _141
REMARK   48  A    between atoms: _140  and  _143
REMARK   49  A    between atoms: _143  and  _144
REMARK   50  A    between atoms: _150  and  _152
REMARK   51  A    between atoms: _152  and  _153
REMARK   52  A    between atoms: _152  and  _155
REMARK   53  A    between atoms: _155  and  _156
REMARK   54  A    between atoms: _156  and  _157
REMARK   55  A    between atoms: _157  and  _158
REMARK   56  A    between atoms: _167  and  _169
REMARK   57  A    between atoms: _169  and  _170
REMARK   58  A    between atoms: _169  and  _172
REMARK   59  A    between atoms: _172  and  _173
REMARK   60  A    between atoms: _178  and  _179
REMARK   61  A    between atoms: _181  and  _183
REMARK   62  A    between atoms: _183  and  _184
REMARK   63  A    between atoms: _183  and  _186
REMARK   64  A    between atoms: _186  and  _187
REMARK   65  A    between atoms: _189  and  _191
REMARK   66  A    between atoms: _191  and  _192
REMARK   67  A    between atoms: _191  and  _194
REMARK   68  A    between atoms: _194  and  _195
REMARK   69  A    between atoms: _200  and  _201
REMARK   70  A    between atoms: _203  and  _205
REMARK   71  A    between atoms: _205  and  _206
REMARK   72  A    between atoms: _205  and  _208
REMARK   73  A    between atoms: _208  and  _209
REMARK   74  A    between atoms: _209  and  _210
REMARK   75  A    between atoms: _210  and  _211
REMARK   76  A    between atoms: _211  and  _212
REMARK   77  A    between atoms: _216  and  _218
REMARK   78  A    between atoms: _218  and  _219
REMARK   79  A    between atoms: _218  and  _221
REMARK   80  A    between atoms: _221  and  _222
REMARK   81  A    between atoms: _225  and  _227
REMARK   82  A    between atoms: _227  and  _228
REMARK   83  A    between atoms: _227  and  _230
REMARK   84  A    between atoms: _230  and  _231
REMARK   85  A    between atoms: _234  and  _236
REMARK   86  A    between atoms: _236  and  _237
REMARK   87  A    between atoms: _236  and  _239
REMARK   88  A    between atoms: _239  and  _240
REMARK   89  A    between atoms: _243  and  _245
REMARK   90  A    between atoms: _245  and  _246
REMARK   91  A    between atoms: _245  and  _248
REMARK   92  A    between atoms: _248  and  _249
REMARK   93  A    between atoms: _255  and  _257
REMARK   94  A    between atoms: _257  and  _258
REMARK   95  A    between atoms: _257  and  _260
REMARK   96  A    between atoms: _260  and  _261
REMARK   97  A    between atoms: _261  and  _262
REMARK   98  A    between atoms: _262  and  _263
REMARK   99  A    between atoms: _272  and  _274
REMARK  100  A    between atoms: _274  and  _275
REMARK  101  A    between atoms: _274  and  _277
REMARK  102  A    between atoms: _277  and  _278
REMARK  103  A    between atoms: _283  and  _284
REMARK  104  A    between atoms: _286  and  _288
REMARK  105  A    between atoms: _288  and  _289
REMARK  106  A    between atoms: _288  and  _291
REMARK  107  A    between atoms: _291  and  _292
REMARK  108  A    between atoms: _295  and  _297
REMARK  109  A    between atoms: _297  and  _298
REMARK  110  A    between atoms: _297  and  _300
REMARK  111  A    between atoms: _300  and  _301
REMARK  112  A    between atoms: _311  and  _313
REMARK  113  A    between atoms: _313  and  _314
REMARK  114  A    between atoms: _313  and  _316
REMARK  115  A    between atoms: _316  and  _317
REMARK  116  A    between atoms: _322  and  _324
REMARK  117  A    between atoms: _324  and  _325
REMARK  118  A    between atoms: _324  and  _327
REMARK  119  A    between atoms: _327  and  _328
REMARK  120  A    between atoms: _332  and  ZN_440
REMARK  121  A    between atoms: _333  and  _335
REMARK  122  A    between atoms: _335  and  _336
REMARK  123  A    between atoms: _335  and  _338
REMARK  124  A    between atoms: _338  and  _339
REMARK  125  A    between atoms: _342  and  _344
REMARK  126  A    between atoms: _344  and  _345
REMARK  127  A    between atoms: _347  and  _349
REMARK  128  A    between atoms: _349  and  _350
REMARK  129  A    between atoms: _349  and  _352
REMARK  130  A    between atoms: _352  and  _353
REMARK  131  A    between atoms: _356  and  _358
REMARK  132  A    between atoms: _358  and  _359
REMARK  133  A    between atoms: _358  and  _361
REMARK  134  A    between atoms: _361  and  _362
REMARK  135  A    between atoms: _365  and  _367
REMARK  136  A    between atoms: _367  and  _368
REMARK  137  A    between atoms: _371  and  _373
REMARK  138  A    between atoms: _373  and  _374
REMARK  139  A    between atoms: _373  and  _376
REMARK  140  A    between atoms: _376  and  _377
REMARK  141  A    between atoms: _382  and  _383
REMARK  142  A    between atoms: _385  and  _387
REMARK  143  A    between atoms: _387  and  _388
REMARK  144  A    between atoms: _387  and  _390
REMARK  145  A    between atoms: _390  and  _391
REMARK  146  A    between atoms: _394  and  _396
REMARK  147  A    between atoms: _396  and  _397
REMARK  148  A    between atoms: _396  and  _399
REMARK  149  A    between atoms: _399  and  _400
REMARK  150  A    between atoms: _400  and  _401
REMARK  151  A    between atoms: _404  and  _406
REMARK  152  A    between atoms: _406  and  _407
REMARK  153  A    between atoms: _406  and  _409
REMARK  154  A    between atoms: _409  and  _410
REMARK  155  A    between atoms: _410  and  _411
REMARK  156  A    between atoms: _411  and  _412
REMARK  157  A    between atoms: _421  and  _423
REMARK  158  A    between atoms: _423  and  _424
REMARK  159  A    between atoms: _426  and  _428
REMARK  160  A    between atoms: _428  and  _429
REMARK  161  A    between atoms: _428  and  _431
REMARK  162  A    between atoms: _431  and  _432
REMARK  163  A    between atoms: _435  and  _437
REMARK  164  A    between atoms: _437  and  _438
REMARK                            x       y       z     vdW  Elec       q    Type
REMARK                         _______ _______ _______ _____ _____    ______ ____
ROOT
ATOM      1  O   HOH     1      24.602  72.500   9.503  0.00  0.00    +0.000 OA
ENDROOT
TORSDOF 0
REMARK  Name = ../refined-set-2016/3d52/3d52_pocket.pdb
REMARK  164 active torsions:
REMARK  status: ('A' for Active; 'I' for Inactive)
REMARK    1  A    between atoms: _1  and  _3
REMARK    2  A    between atoms: _14  and  _17
REMARK    3  A    between atoms: _17  and  _18
REMARK    4  A    between atoms: _25  and  _26
REMARK    5  A    between atoms: _33  and  _34
REMARK    6  A    between atoms: _39  and  _41
REMARK    7  A    between atoms: _41  and  _42
REMARK    8  A    between atoms: _44  and  _46
REMARK    9  A    between atoms: _46  and  _47
REMARK   10  A    between atoms: _46  and  _49
REMARK   11  A    between atoms: _49  and  _50
REMARK   12  A    between atoms: _60  and  _62
REMARK   13  A    between atoms: _62  and  _63
REMARK   14  A    between atoms: _62  and  _65
REMARK   15  A    between atoms: _65  and  _66
REMARK   16  A    between atoms: _69  and  _71
REMARK   17  A    between atoms: _71  and  _72
REMARK   18  A    between atoms: _71  and  _74
REMARK   19  A    between atoms: _74  and  _75
REMARK   20  A    between atoms: _75  and  _76
REMARK   21  A    between atoms: _81  and  _83
REMARK   22  A    between atoms: _83  and  _84
REMARK   23  A    between atoms: _83  and  _86
REMARK   24  A    between atoms: _86  and  _87
REMARK   25  A    between atoms: _92  and  _93
REMARK   26  A    between atoms: _95  and  _97
REMARK   27  A    between atoms: _97  and  _98
REMARK   28  A    between atoms: _97  and  _100
REMARK   29  A    between atoms: _100  and  _101
REMARK   30  A    between atoms: _104  and  _106
REMARK   31  A    between atoms: _106  and  _107
REMARK   32  A    between atoms: _106  and  _109
REMARK   33  A    between atoms: _109  and  _110
REMARK   34  A    between atoms: _110  and  _111
REMARK   35  A    between atoms: _113  and  _115
REMARK   36  A    between atoms: _115  and  _116
REMARK   37  A    between atoms: _115  and  _118
REMARK   38  A    between atoms: _118  and  _119
REMARK   39  A    between atoms: _122  and  _124
REMARK   40  A    between atoms: _124  and  _125
REMARK   41  A    between atoms: _124  and  _127
REMARK   42  A    between atoms: _127  and  _128
REMARK   43  A    between atoms: _128  and  _130
REMARK   44  A    between atoms: _130  and  ZN_440
REMARK   45  A    between atoms: _132  and  _133
REMARK   46  A    between atoms: _138  and  _140
REMARK   47  A    between atoms: _140  and  _141
REMARK   48  A    between atoms: _140  and  _143
REMARK   49  A    between atoms: _143  and  _144
REMARK   50  A    between atoms: _150  and  _152
REMARK   51  A    between atoms: _152  and  _153
REMARK   52  A    between atoms: _152  and  _155
REMARK   53  A    between atoms: _155  and  _156
REMARK   54  A    between atoms: _156  and  _157
REMARK   55  A    between atoms: _157  and  _158
REMARK   56  A    between atoms: _167  and  _169
REMARK   57  A    between atoms: _169  and  _170
REMARK   58  A    between atoms: _169  and  _172
REMARK   59  A    between atoms: _172  and  _173
REMARK   60  A    between atoms: _178  and  _179
REMARK   61  A    between atoms: _181  and  _183
REMARK   62  A    between atoms: _183  and  _184
REMARK   63  A    between atoms: _183  and  _186
REMARK   64  A    between atoms: _186  and  _187
REMARK   65  A    between atoms: _189  and  _191
REMARK   66  A    between atoms: _191  and  _192
REMARK   67  A    between atoms: _191  and  _194
REMARK   68  A    between atoms: _194  and  _195
REMARK   69  A    between atoms: _200  and  _201
REMARK   70  A    between atoms: _203  and  _205
REMARK   71  A    between atoms: _205  and  _206
REMARK   72  A    between atoms: _205  and  _208
REMARK   73  A    between atoms: _208  and  _209
REMARK   74  A    between atoms: _209  and  _210
REMARK   75  A    between atoms: _210  and  _211
REMARK   76  A    between atoms: _211  and  _212
REMARK   77  A    between atoms: _216  and  _218
REMARK   78  A    between atoms: _218  and  _219
REMARK   79  A    between atoms: _218  and  _221
REMARK   80  A    between atoms: _221  and  _222
REMARK   81  A    between atoms: _225  and  _227
REMARK   82  A    between atoms: _227  and  _228
REMARK   83  A    between atoms: _227  and  _230
REMARK   84  A    between atoms: _230  and  _231
REMARK   85  A    between atoms: _234  and  _236
REMARK   86  A    between atoms: _236  and  _237
REMARK   87  A    between atoms: _236  and  _239
REMARK   88  A    between atoms: _239  and  _240
REMARK   89  A    between atoms: _243  and  _245
REMARK   90  A    between atoms: _245  and  _246
REMARK   91  A    between atoms: _245  and  _248
REMARK   92  A    between atoms: _248  and  _249
REMARK   93  A    between atoms: _255  and  _257
REMARK   94  A    between atoms: _257  and  _258
REMARK   95  A    between atoms: _257  and  _260
REMARK   96  A    between atoms: _260  and  _261
REMARK   97  A    between atoms: _261  and  _262
REMARK   98  A    between atoms: _262  and  _263
REMARK   99  A    between atoms: _272  and  _274
REMARK  100  A    between atoms: _274  and  _275
REMARK  101  A    between atoms: _274  and  _277
REMARK  102  A    between atoms: _277  and  _278
REMARK  103  A    between atoms: _283  and  _284
REMARK  104  A    between atoms: _286  and  _288
REMARK  105  A    between atoms: _288  and  _289
REMARK  106  A    between atoms: _288  and  _291
REMARK  107  A    between atoms: _291  and  _292
REMARK  108  A    between atoms: _295  and  _297
REMARK  109  A    between atoms: _297  and  _298
REMARK  110  A    between atoms: _297  and  _300
REMARK  111  A    between atoms: _300  and  _301
REMARK  112  A    between atoms: _311  and  _313
REMARK  113  A    between atoms: _313  and  _314
REMARK  114  A    between atoms: _313  and  _316
REMARK  115  A    between atoms: _316  and  _317
REMARK  116  A    between atoms: _322  and  _324
REMARK  117  A    between atoms: _324  and  _325
REMARK  118  A    between atoms: _324  and  _327
REMARK  119  A    between atoms: _327  and  _328
REMARK  120  A    between atoms: _332  and  ZN_440
REMARK  121  A    between atoms: _333  and  _335
REMARK  122  A    between atoms: _335  and  _336
REMARK  123  A    between atoms: _335  and  _338
REMARK  124  A    between atoms: _338  and  _339
REMARK  125  A    between atoms: _342  and  _344
REMARK  126  A    between atoms: _344  and  _345
REMARK  127  A    between atoms: _347  and  _349
REMARK  128  A    between atoms: _349  and  _350
REMARK  129  A    between atoms: _349  and  _352
REMARK  130  A    between atoms: _352  and  _353
REMARK  131  A    between atoms: _356  and  _358
REMARK  132  A    between atoms: _358  and  _359
REMARK  133  A    between atoms: _358  and  _361
REMARK  134  A    between atoms: _361  and  _362
REMARK  135  A    between atoms: _365  and  _367
REMARK  136  A    between atoms: _367  and  _368
REMARK  137  A    between atoms: _371  and  _373
REMARK  138  A    between atoms: _373  and  _374
REMARK  139  A    between atoms: _373  and  _376
REMARK  140  A    between atoms: _376  and  _377
REMARK  141  A    between atoms: _382  and  _383
REMARK  142  A    between atoms: _385  and  _387
REMARK  143  A    between atoms: _387  and  _388
REMARK  144  A    between atoms: _387  and  _390
REMARK  145  A    between atoms: _390  and  _391
REMARK  146  A    between atoms: _394  and  _396
REMARK  147  A    between atoms: _396  and  _397
REMARK  148  A    between atoms: _396  and  _399
REMARK  149  A    between atoms: _399  and  _400
REMARK  150  A    between atoms: _400  and  _401
REMARK  151  A    between atoms: _404  and  _406
REMARK  152  A    between atoms: _406  and  _407
REMARK  153  A    between atoms: _406  and  _409
REMARK  154  A    between atoms: _409  and  _410
REMARK  155  A    between atoms: _410  and  _411
REMARK  156  A    between atoms: _411  and  _412
REMARK  157  A    between atoms: _421  and  _423
REMARK  158  A    between atoms: _423  and  _424
REMARK  159  A    between atoms: _426  and  _428
REMARK  160  A    between atoms: _428  and  _429
REMARK  161  A    between atoms: _428  and  _431
REMARK  162  A    between atoms: _431  and  _432
REMARK  163  A    between atoms: _435  and  _437
REMARK  164  A    between atoms: _437  and  _438
REMARK                            x       y       z     vdW  Elec       q    Type
REMARK                         _______ _______ _______ _____ _____    ______ ____
ROOT
ATOM      1  O   HOH     1      25.888  73.949  11.808  0.00  0.00    +0.000 OA
ENDROOT
TORSDOF 0
REMARK  Name = ../refined-set-2016/3d52/3d52_pocket.pdb
REMARK  164 active torsions:
REMARK  status: ('A' for Active; 'I' for Inactive)
REMARK    1  A    between atoms: _1  and  _3
REMARK    2  A    between atoms: _14  and  _17
REMARK    3  A    between atoms: _17  and  _18
REMARK    4  A    between atoms: _25  and  _26
REMARK    5  A    between atoms: _33  and  _34
REMARK    6  A    between atoms: _39  and  _41
REMARK    7  A    between atoms: _41  and  _42
REMARK    8  A    between atoms: _44  and  _46
REMARK    9  A    between atoms: _46  and  _47
REMARK   10  A    between atoms: _46  and  _49
REMARK   11  A    between atoms: _49  and  _50
REMARK   12  A    between atoms: _60  and  _62
REMARK   13  A    between atoms: _62  and  _63
REMARK   14  A    between atoms: _62  and  _65
REMARK   15  A    between atoms: _65  and  _66
REMARK   16  A    between atoms: _69  and  _71
REMARK   17  A    between atoms: _71  and  _72
REMARK   18  A    between atoms: _71  and  _74
REMARK   19  A    between atoms: _74  and  _75
REMARK   20  A    between atoms: _75  and  _76
REMARK   21  A    between atoms: _81  and  _83
REMARK   22  A    between atoms: _83  and  _84
REMARK   23  A    between atoms: _83  and  _86
REMARK   24  A    between atoms: _86  and  _87
REMARK   25  A    between atoms: _92  and  _93
REMARK   26  A    between atoms: _95  and  _97
REMARK   27  A    between atoms: _97  and  _98
REMARK   28  A    between atoms: _97  and  _100
REMARK   29  A    between atoms: _100  and  _101
REMARK   30  A    between atoms: _104  and  _106
REMARK   31  A    between atoms: _106  and  _107
REMARK   32  A    between atoms: _106  and  _109
REMARK   33  A    between atoms: _109  and  _110
REMARK   34  A    between atoms: _110  and  _111
REMARK   35  A    between atoms: _113  and  _115
REMARK   36  A    between atoms: _115  and  _116
REMARK   37  A    between atoms: _115  and  _118
REMARK   38  A    between atoms: _118  and  _119
REMARK   39  A    between atoms: _122  and  _124
REMARK   40  A    between atoms: _124  and  _125
REMARK   41  A    between atoms: _124  and  _127
REMARK   42  A    between atoms: _127  and  _128
REMARK   43  A    between atoms: _128  and  _130
REMARK   44  A    between atoms: _130  and  ZN_440
REMARK   45  A    between atoms: _132  and  _133
REMARK   46  A    between atoms: _138  and  _140
REMARK   47  A    between atoms: _140  and  _141
REMARK   48  A    between atoms: _140  and  _143
REMARK   49  A    between atoms: _143  and  _144
REMARK   50  A    between atoms: _150  and  _152
REMARK   51  A    between atoms: _152  and  _153
REMARK   52  A    between atoms: _152  and  _155
REMARK   53  A    between atoms: _155  and  _156
REMARK   54  A    between atoms: _156  and  _157
REMARK   55  A    between atoms: _157  and  _158
REMARK   56  A    between atoms: _167  and  _169
REMARK   57  A    between atoms: _169  and  _170
REMARK   58  A    between atoms: _169  and  _172
REMARK   59  A    between atoms: _172  and  _173
REMARK   60  A    between atoms: _178  and  _179
REMARK   61  A    between atoms: _181  and  _183
REMARK   62  A    between atoms: _183  and  _184
REMARK   63  A    between atoms: _183  and  _186
REMARK   64  A    between atoms: _186  and  _187
REMARK   65  A    between atoms: _189  and  _191
REMARK   66  A    between atoms: _191  and  _192
REMARK   67  A    between atoms: _191  and  _194
REMARK   68  A    between atoms: _194  and  _195
REMARK   69  A    between atoms: _200  and  _201
REMARK   70  A    between atoms: _203  and  _205
REMARK   71  A    between atoms: _205  and  _206
REMARK   72  A    between atoms: _205  and  _208
REMARK   73  A    between atoms: _208  and  _209
REMARK   74  A    between atoms: _209  and  _210
REMARK   75  A    between atoms: _210  and  _211
REMARK   76  A    between atoms: _211  and  _212
REMARK   77  A    between atoms: _216  and  _218
REMARK   78  A    between atoms: _218  and  _219
REMARK   79  A    between atoms: _218  and  _221
REMARK   80  A    between atoms: _221  and  _222
REMARK   81  A    between atoms: _225  and  _227
REMARK   82  A    between atoms: _227  and  _228
REMARK   83  A    between atoms: _227  and  _230
REMARK   84  A    between atoms: _230  and  _231
REMARK   85  A    between atoms: _234  and  _236
REMARK   86  A    between atoms: _236  and  _237
REMARK   87  A    between atoms: _236  and  _239
REMARK   88  A    between atoms: _239  and  _240
REMARK   89  A    between atoms: _243  and  _245
REMARK   90  A    between atoms: _245  and  _246
REMARK   91  A    between atoms: _245  and  _248
REMARK   92  A    between atoms: _248  and  _249
REMARK   93  A    between atoms: _255  and  _257
REMARK   94  A    between atoms: _257  and  _258
REMARK   95  A    between atoms: _257  and  _260
REMARK   96  A    between atoms: _260  and  _261
REMARK   97  A    between atoms: _261  and  _262
REMARK   98  A    between atoms: _262  and  _263
REMARK   99  A    between atoms: _272  and  _274
REMARK  100  A    between atoms: _274  and  _275
REMARK  101  A    between atoms: _274  and  _277
REMARK  102  A    between atoms: _277  and  _278
REMARK  103  A    between atoms: _283  and  _284
REMARK  104  A    between atoms: _286  and  _288
REMARK  105  A    between atoms: _288  and  _289
REMARK  106  A    between atoms: _288  and  _291
REMARK  107  A    between atoms: _291  and  _292
REMARK  108  A    between atoms: _295  and  _297
REMARK  109  A    between atoms: _297  and  _298
REMARK  110  A    between atoms: _297  and  _300
REMARK  111  A    between atoms: _300  and  _301
REMARK  112  A    between atoms: _311  and  _313
REMARK  113  A    between atoms: _313  and  _314
REMARK  114  A    between atoms: _313  and  _316
REMARK  115  A    between atoms: _316  and  _317
REMARK  116  A    between atoms: _322  and  _324
REMARK  117  A    between atoms: _324  and  _325
REMARK  118  A    between atoms: _324  and  _327
REMARK  119  A    between atoms: _327  and  _328
REMARK  120  A    between atoms: _332  and  ZN_440
REMARK  121  A    between atoms: _333  and  _335
REMARK  122  A    between atoms: _335  and  _336
REMARK  123  A    between atoms: _335  and  _338
REMARK  124  A    between atoms: _338  and  _339
REMARK  125  A    between atoms: _342  and  _344
REMARK  126  A    between atoms: _344  and  _345
REMARK  127  A    between atoms: _347  and  _349
REMARK  128  A    between atoms: _349  and  _350
REMARK  129  A    between atoms: _349  and  _352
REMARK  130  A    between atoms: _352  and  _353
REMARK  131  A    between atoms: _356  and  _358
REMARK  132  A    between atoms: _358  and  _359
REMARK  133  A    between atoms: _358  and  _361
REMARK  134  A    between atoms: _361  and  _362
REMARK  135  A    between atoms: _365  and  _367
REMARK  136  A    between atoms: _367  and  _368
REMARK  137  A    between atoms: _371  and  _373
REMARK  138  A    between atoms: _373  and  _374
REMARK  139  A    between atoms: _373  and  _376
REMARK  140  A    between atoms: _376  and  _377
REMARK  141  A    between atoms: _382  and  _383
REMARK  142  A    between atoms: _385  and  _387
REMARK  143  A    between atoms: _387  and  _388
REMARK  144  A    between atoms: _387  and  _390
REMARK  145  A    between atoms: _390  and  _391
REMARK  146  A    between atoms: _394  and  _396
REMARK  147  A    between atoms: _396  and  _397
REMARK  148  A    between atoms: _396  and  _399
REMARK  149  A    between atoms: _399  and  _400
REMARK  150  A    between atoms: _400  and  _401
REMARK  151  A    between atoms: _404  and  _406
REMARK  152  A    between atoms: _406  and  _407
REMARK  153  A    between atoms: _406  and  _409
REMARK  154  A    between atoms: _409  and  _410
REMARK  155  A    between atoms: _410  and  _411
REMARK  156  A    between atoms: _411  and  _412
REMARK  157  A    between atoms: _421  and  _423
REMARK  158  A    between atoms: _423  and  _424
REMARK  159  A    between atoms: _426  and  _428
REMARK  160  A    between atoms: _428  and  _429
REMARK  161  A    between atoms: _428  and  _431
REMARK  162  A    between atoms: _431  and  _432
REMARK  163  A    between atoms: _435  and  _437
REMARK  164  A    between atoms: _437  and  _438
REMARK                            x       y       z     vdW  Elec       q    Type
REMARK                         _______ _______ _______ _____ _____    ______ ____
ROOT
ATOM      1  O   HOH     1      29.002  74.449  11.865  0.00  0.00    +0.000 OA
ENDROOT
TORSDOF 0
REMARK  Name = ../refined-set-2016/3d52/3d52_pocket.pdb
REMARK  164 active torsions:
REMARK  status: ('A' for Active; 'I' for Inactive)
REMARK    1  A    between atoms: _1  and  _3
REMARK    2  A    between atoms: _14  and  _17
REMARK    3  A    between atoms: _17  and  _18
REMARK    4  A    between atoms: _25  and  _26
REMARK    5  A    between atoms: _33  and  _34
REMARK    6  A    between atoms: _39  and  _41
REMARK    7  A    between atoms: _41  and  _42
REMARK    8  A    between atoms: _44  and  _46
REMARK    9  A    between atoms: _46  and  _47
REMARK   10  A    between atoms: _46  and  _49
REMARK   11  A    between atoms: _49  and  _50
REMARK   12  A    between atoms: _60  and  _62
REMARK   13  A    between atoms: _62  and  _63
REMARK   14  A    between atoms: _62  and  _65
REMARK   15  A    between atoms: _65  and  _66
REMARK   16  A    between atoms: _69  and  _71
REMARK   17  A    between atoms: _71  and  _72
REMARK   18  A    between atoms: _71  and  _74
REMARK   19  A    between atoms: _74  and  _75
REMARK   20  A    between atoms: _75  and  _76
REMARK   21  A    between atoms: _81  and  _83
REMARK   22  A    between atoms: _83  and  _84
REMARK   23  A    between atoms: _83  and  _86
REMARK   24  A    between atoms: _86  and  _87
REMARK   25  A    between atoms: _92  and  _93
REMARK   26  A    between atoms: _95  and  _97
REMARK   27  A    between atoms: _97  and  _98
REMARK   28  A    between atoms: _97  and  _100
REMARK   29  A    between atoms: _100  and  _101
REMARK   30  A    between atoms: _104  and  _106
REMARK   31  A    between atoms: _106  and  _107
REMARK   32  A    between atoms: _106  and  _109
REMARK   33  A    between atoms: _109  and  _110
REMARK   34  A    between atoms: _110  and  _111
REMARK   35  A    between atoms: _113  and  _115
REMARK   36  A    between atoms: _115  and  _116
REMARK   37  A    between atoms: _115  and  _118
REMARK   38  A    between atoms: _118  and  _119
REMARK   39  A    between atoms: _122  and  _124
REMARK   40  A    between atoms: _124  and  _125
REMARK   41  A    between atoms: _124  and  _127
REMARK   42  A    between atoms: _127  and  _128
REMARK   43  A    between atoms: _128  and  _130
REMARK   44  A    between atoms: _130  and  ZN_440
REMARK   45  A    between atoms: _132  and  _133
REMARK   46  A    between atoms: _138  and  _140
REMARK   47  A    between atoms: _140  and  _141
REMARK   48  A    between atoms: _140  and  _143
REMARK   49  A    between atoms: _143  and  _144
REMARK   50  A    between atoms: _150  and  _152
REMARK   51  A    between atoms: _152  and  _153
REMARK   52  A    between atoms: _152  and  _155
REMARK   53  A    between atoms: _155  and  _156
REMARK   54  A    between atoms: _156  and  _157
REMARK   55  A    between atoms: _157  and  _158
REMARK   56  A    between atoms: _167  and  _169
REMARK   57  A    between atoms: _169  and  _170
REMARK   58  A    between atoms: _169  and  _172
REMARK   59  A    between atoms: _172  and  _173
REMARK   60  A    between atoms: _178  and  _179
REMARK   61  A    between atoms: _181  and  _183
REMARK   62  A    between atoms: _183  and  _184
REMARK   63  A    between atoms: _183  and  _186
REMARK   64  A    between atoms: _186  and  _187
REMARK   65  A    between atoms: _189  and  _191
REMARK   66  A    between atoms: _191  and  _192
REMARK   67  A    between atoms: _191  and  _194
REMARK   68  A    between atoms: _194  and  _195
REMARK   69  A    between atoms: _200  and  _201
REMARK   70  A    between atoms: _203  and  _205
REMARK   71  A    between atoms: _205  and  _206
REMARK   72  A    between atoms: _205  and  _208
REMARK   73  A    between atoms: _208  and  _209
REMARK   74  A    between atoms: _209  and  _210
REMARK   75  A    between atoms: _210  and  _211
REMARK   76  A    between atoms: _211  and  _212
REMARK   77  A    between atoms: _216  and  _218
REMARK   78  A    between atoms: _218  and  _219
REMARK   79  A    between atoms: _218  and  _221
REMARK   80  A    between atoms: _221  and  _222
REMARK   81  A    between atoms: _225  and  _227
REMARK   82  A    between atoms: _227  and  _228
REMARK   83  A    between atoms: _227  and  _230
REMARK   84  A    between atoms: _230  and  _231
REMARK   85  A    between atoms: _234  and  _236
REMARK   86  A    between atoms: _236  and  _237
REMARK   87  A    between atoms: _236  and  _239
REMARK   88  A    between atoms: _239  and  _240
REMARK   89  A    between atoms: _243  and  _245
REMARK   90  A    between atoms: _245  and  _246
REMARK   91  A    between atoms: _245  and  _248
REMARK   92  A    between atoms: _248  and  _249
REMARK   93  A    between atoms: _255  and  _257
REMARK   94  A    between atoms: _257  and  _258
REMARK   95  A    between atoms: _257  and  _260
REMARK   96  A    between atoms: _260  and  _261
REMARK   97  A    between atoms: _261  and  _262
REMARK   98  A    between atoms: _262  and  _263
REMARK   99  A    between atoms: _272  and  _274
REMARK  100  A    between atoms: _274  and  _275
REMARK  101  A    between atoms: _274  and  _277
REMARK  102  A    between atoms: _277  and  _278
REMARK  103  A    between atoms: _283  and  _284
REMARK  104  A    between atoms: _286  and  _288
REMARK  105  A    between atoms: _288  and  _289
REMARK  106  A    between atoms: _288  and  _291
REMARK  107  A    between atoms: _291  and  _292
REMARK  108  A    between atoms: _295  and  _297
REMARK  109  A    between atoms: _297  and  _298
REMARK  110  A    between atoms: _297  and  _300
REMARK  111  A    between atoms: _300  and  _301
REMARK  112  A    between atoms: _311  and  _313
REMARK  113  A    between atoms: _313  and  _314
REMARK  114  A    between atoms: _313  and  _316
REMARK  115  A    between atoms: _316  and  _317
REMARK  116  A    between atoms: _322  and  _324
REMARK  117  A    between atoms: _324  and  _325
REMARK  118  A    between atoms: _324  and  _327
REMARK  119  A    between atoms: _327  and  _328
REMARK  120  A    between atoms: _332  and  ZN_440
REMARK  121  A    between atoms: _333  and  _335
REMARK  122  A    between atoms: _335  and  _336
REMARK  123  A    between atoms: _335  and  _338
REMARK  124  A    between atoms: _338  and  _339
REMARK  125  A    between atoms: _342  and  _344
REMARK  126  A    between atoms: _344  and  _345
REMARK  127  A    between atoms: _347  and  _349
REMARK  128  A    between atoms: _349  and  _350
REMARK  129  A    between atoms: _349  and  _352
REMARK  130  A    between atoms: _352  and  _353
REMARK  131  A    between atoms: _356  and  _358
REMARK  132  A    between atoms: _358  and  _359
REMARK  133  A    between atoms: _358  and  _361
REMARK  134  A    between atoms: _361  and  _362
REMARK  135  A    between atoms: _365  and  _367
REMARK  136  A    between atoms: _367  and  _368
REMARK  137  A    between atoms: _371  and  _373
REMARK  138  A    between atoms: _373  and  _374
REMARK  139  A    between atoms: _373  and  _376
REMARK  140  A    between atoms: _376  and  _377
REMARK  141  A    between atoms: _382  and  _383
REMARK  142  A    between atoms: _385  and  _387
REMARK  143  A    between atoms: _387  and  _388
REMARK  144  A    between atoms: _387  and  _390
REMARK  145  A    between atoms: _390  and  _391
REMARK  146  A    between atoms: _394  and  _396
REMARK  147  A    between atoms: _396  and  _397
REMARK  148  A    between atoms: _396  and  _399
REMARK  149  A    between atoms: _399  and  _400
REMARK  150  A    between atoms: _400  and  _401
REMARK  151  A    between atoms: _404  and  _406
REMARK  152  A    between atoms: _406  and  _407
REMARK  153  A    between atoms: _406  and  _409
REMARK  154  A    between atoms: _409  and  _410
REMARK  155  A    between atoms: _410  and  _411
REMARK  156  A    between atoms: _411  and  _412
REMARK  157  A    between atoms: _421  and  _423
REMARK  158  A    between atoms: _423  and  _424
REMARK  159  A    between atoms: _426  and  _428
REMARK  160  A    between atoms: _428  and  _429
REMARK  161  A    between atoms: _428  and  _431
REMARK  162  A    between atoms: _431  and  _432
REMARK  163  A    between atoms: _435  and  _437
REMARK  164  A    between atoms: _437  and  _438
REMARK                            x       y       z     vdW  Elec       q    Type
REMARK                         _______ _______ _______ _____ _____    ______ ____
ROOT
ATOM      1  O   HOH     1      29.335  70.674  12.788  0.00  0.00    +0.000 OA
ENDROOT
TORSDOF 0
REMARK  Name = ../refined-set-2016/3d52/3d52_pocket.pdb
REMARK  164 active torsions:
REMARK  status: ('A' for Active; 'I' for Inactive)
REMARK    1  A    between atoms: _1  and  _3
REMARK    2  A    between atoms: _14  and  _17
REMARK    3  A    between atoms: _17  and  _18
REMARK    4  A    between atoms: _25  and  _26
REMARK    5  A    between atoms: _33  and  _34
REMARK    6  A    between atoms: _39  and  _41
REMARK    7  A    between atoms: _41  and  _42
REMARK    8  A    between atoms: _44  and  _46
REMARK    9  A    between atoms: _46  and  _47
REMARK   10  A    between atoms: _46  and  _49
REMARK   11  A    between atoms: _49  and  _50
REMARK   12  A    between atoms: _60  and  _62
REMARK   13  A    between atoms: _62  and  _63
REMARK   14  A    between atoms: _62  and  _65
REMARK   15  A    between atoms: _65  and  _66
REMARK   16  A    between atoms: _69  and  _71
REMARK   17  A    between atoms: _71  and  _72
REMARK   18  A    between atoms: _71  and  _74
REMARK   19  A    between atoms: _74  and  _75
REMARK   20  A    between atoms: _75  and  _76
REMARK   21  A    between atoms: _81  and  _83
REMARK   22  A    between atoms: _83  and  _84
REMARK   23  A    between atoms: _83  and  _86
REMARK   24  A    between atoms: _86  and  _87
REMARK   25  A    between atoms: _92  and  _93
REMARK   26  A    between atoms: _95  and  _97
REMARK   27  A    between atoms: _97  and  _98
REMARK   28  A    between atoms: _97  and  _100
REMARK   29  A    between atoms: _100  and  _101
REMARK   30  A    between atoms: _104  and  _106
REMARK   31  A    between atoms: _106  and  _107
REMARK   32  A    between atoms: _106  and  _109
REMARK   33  A    between atoms: _109  and  _110
REMARK   34  A    between atoms: _110  and  _111
REMARK   35  A    between atoms: _113  and  _115
REMARK   36  A    between atoms: _115  and  _116
REMARK   37  A    between atoms: _115  and  _118
REMARK   38  A    between atoms: _118  and  _119
REMARK   39  A    between atoms: _122  and  _124
REMARK   40  A    between atoms: _124  and  _125
REMARK   41  A    between atoms: _124  and  _127
REMARK   42  A    between atoms: _127  and  _128
REMARK   43  A    between atoms: _128  and  _130
REMARK   44  A    between atoms: _130  and  ZN_440
REMARK   45  A    between atoms: _132  and  _133
REMARK   46  A    between atoms: _138  and  _140
REMARK   47  A    between atoms: _140  and  _141
REMARK   48  A    between atoms: _140  and  _143
REMARK   49  A    between atoms: _143  and  _144
REMARK   50  A    between atoms: _150  and  _152
REMARK   51  A    between atoms: _152  and  _153
REMARK   52  A    between atoms: _152  and  _155
REMARK   53  A    between atoms: _155  and  _156
REMARK   54  A    between atoms: _156  and  _157
REMARK   55  A    between atoms: _157  and  _158
REMARK   56  A    between atoms: _167  and  _169
REMARK   57  A    between atoms: _169  and  _170
REMARK   58  A    between atoms: _169  and  _172
REMARK   59  A    between atoms: _172  and  _173
REMARK   60  A    between atoms: _178  and  _179
REMARK   61  A    between atoms: _181  and  _183
REMARK   62  A    between atoms: _183  and  _184
REMARK   63  A    between atoms: _183  and  _186
REMARK   64  A    between atoms: _186  and  _187
REMARK   65  A    between atoms: _189  and  _191
REMARK   66  A    between atoms: _191  and  _192
REMARK   67  A    between atoms: _191  and  _194
REMARK   68  A    between atoms: _194  and  _195
REMARK   69  A    between atoms: _200  and  _201
REMARK   70  A    between atoms: _203  and  _205
REMARK   71  A    between atoms: _205  and  _206
REMARK   72  A    between atoms: _205  and  _208
REMARK   73  A    between atoms: _208  and  _209
REMARK   74  A    between atoms: _209  and  _210
REMARK   75  A    between atoms: _210  and  _211
REMARK   76  A    between atoms: _211  and  _212
REMARK   77  A    between atoms: _216  and  _218
REMARK   78  A    between atoms: _218  and  _219
REMARK   79  A    between atoms: _218  and  _221
REMARK   80  A    between atoms: _221  and  _222
REMARK   81  A    between atoms: _225  and  _227
REMARK   82  A    between atoms: _227  and  _228
REMARK   83  A    between atoms: _227  and  _230
REMARK   84  A    between atoms: _230  and  _231
REMARK   85  A    between atoms: _234  and  _236
REMARK   86  A    between atoms: _236  and  _237
REMARK   87  A    between atoms: _236  and  _239
REMARK   88  A    between atoms: _239  and  _240
REMARK   89  A    between atoms: _243  and  _245
REMARK   90  A    between atoms: _245  and  _246
REMARK   91  A    between atoms: _245  and  _248
REMARK   92  A    between atoms: _248  and  _249
REMARK   93  A    between atoms: _255  and  _257
REMARK   94  A    between atoms: _257  and  _258
REMARK   95  A    between atoms: _257  and  _260
REMARK   96  A    between atoms: _260  and  _261
REMARK   97  A    between atoms: _261  and  _262
REMARK   98  A    between atoms: _262  and  _263
REMARK   99  A    between atoms: _272  and  _274
REMARK  100  A    between atoms: _274  and  _275
REMARK  101  A    between atoms: _274  and  _277
REMARK  102  A    between atoms: _277  and  _278
REMARK  103  A    between atoms: _283  and  _284
REMARK  104  A    between atoms: _286  and  _288
REMARK  105  A    between atoms: _288  and  _289
REMARK  106  A    between atoms: _288  and  _291
REMARK  107  A    between atoms: _291  and  _292
REMARK  108  A    between atoms: _295  and  _297
REMARK  109  A    between atoms: _297  and  _298
REMARK  110  A    between atoms: _297  and  _300
REMARK  111  A    between atoms: _300  and  _301
REMARK  112  A    between atoms: _311  and  _313
REMARK  113  A    between atoms: _313  and  _314
REMARK  114  A    between atoms: _313  and  _316
REMARK  115  A    between atoms: _316  and  _317
REMARK  116  A    between atoms: _322  and  _324
REMARK  117  A    between atoms: _324  and  _325
REMARK  118  A    between atoms: _324  and  _327
REMARK  119  A    between atoms: _327  and  _328
REMARK  120  A    between atoms: _332  and  ZN_440
REMARK  121  A    between atoms: _333  and  _335
REMARK  122  A    between atoms: _335  and  _336
REMARK  123  A    between atoms: _335  and  _338
REMARK  124  A    between atoms: _338  and  _339
REMARK  125  A    between atoms: _342  and  _344
REMARK  126  A    between atoms: _344  and  _345
REMARK  127  A    between atoms: _347  and  _349
REMARK  128  A    between atoms: _349  and  _350
REMARK  129  A    between atoms: _349  and  _352
REMARK  130  A    between atoms: _352  and  _353
REMARK  131  A    between atoms: _356  and  _358
REMARK  132  A    between atoms: _358  and  _359
REMARK  133  A    between atoms: _358  and  _361
REMARK  134  A    between atoms: _361  and  _362
REMARK  135  A    between atoms: _365  and  _367
REMARK  136  A    between atoms: _367  and  _368
REMARK  137  A    between atoms: _371  and  _373
REMARK  138  A    between atoms: _373  and  _374
REMARK  139  A    between atoms: _373  and  _376
REMARK  140  A    between atoms: _376  and  _377
REMARK  141  A    between atoms: _382  and  _383
REMARK  142  A    between atoms: _385  and  _387
REMARK  143  A    between atoms: _387  and  _388
REMARK  144  A    between atoms: _387  and  _390
REMARK  145  A    between atoms: _390  and  _391
REMARK  146  A    between atoms: _394  and  _396
REMARK  147  A    between atoms: _396  and  _397
REMARK  148  A    between atoms: _396  and  _399
REMARK  149  A    between atoms: _399  and  _400
REMARK  150  A    between atoms: _400  and  _401
REMARK  151  A    between atoms: _404  and  _406
REMARK  152  A    between atoms: _406  and  _407
REMARK  153  A    between atoms: _406  and  _409
REMARK  154  A    between atoms: _409  and  _410
REMARK  155  A    between atoms: _410  and  _411
REMARK  156  A    between atoms: _411  and  _412
REMARK  157  A    between atoms: _421  and  _423
REMARK  158  A    between atoms: _423  and  _424
REMARK  159  A    between atoms: _426  and  _428
REMARK  160  A    between atoms: _428  and  _429
REMARK  161  A    between atoms: _428  and  _431
REMARK  162  A    between atoms: _431  and  _432
REMARK  163  A    between atoms: _435  and  _437
REMARK  164  A    between atoms: _437  and  _438
REMARK                            x       y       z     vdW  Elec       q    Type
REMARK                         _______ _______ _______ _____ _____    ______ ____
ROOT
ATOM      1  O   HOH     1      31.596  70.041  14.176  0.00  0.00    +0.000 OA
ENDROOT
TORSDOF 0
REMARK  Name = ../refined-set-2016/3d52/3d52_pocket.pdb
REMARK  164 active torsions:
REMARK  status: ('A' for Active; 'I' for Inactive)
REMARK    1  A    between atoms: _1  and  _3
REMARK    2  A    between atoms: _14  and  _17
REMARK    3  A    between atoms: _17  and  _18
REMARK    4  A    between atoms: _25  and  _26
REMARK    5  A    between atoms: _33  and  _34
REMARK    6  A    between atoms: _39  and  _41
REMARK    7  A    between atoms: _41  and  _42
REMARK    8  A    between atoms: _44  and  _46
REMARK    9  A    between atoms: _46  and  _47
REMARK   10  A    between atoms: _46  and  _49
REMARK   11  A    between atoms: _49  and  _50
REMARK   12  A    between atoms: _60  and  _62
REMARK   13  A    between atoms: _62  and  _63
REMARK   14  A    between atoms: _62  and  _65
REMARK   15  A    between atoms: _65  and  _66
REMARK   16  A    between atoms: _69  and  _71
REMARK   17  A    between atoms: _71  and  _72
REMARK   18  A    between atoms: _71  and  _74
REMARK   19  A    between atoms: _74  and  _75
REMARK   20  A    between atoms: _75  and  _76
REMARK   21  A    between atoms: _81  and  _83
REMARK   22  A    between atoms: _83  and  _84
REMARK   23  A    between atoms: _83  and  _86
REMARK   24  A    between atoms: _86  and  _87
REMARK   25  A    between atoms: _92  and  _93
REMARK   26  A    between atoms: _95  and  _97
REMARK   27  A    between atoms: _97  and  _98
REMARK   28  A    between atoms: _97  and  _100
REMARK   29  A    between atoms: _100  and  _101
REMARK   30  A    between atoms: _104  and  _106
REMARK   31  A    between atoms: _106  and  _107
REMARK   32  A    between atoms: _106  and  _109
REMARK   33  A    between atoms: _109  and  _110
REMARK   34  A    between atoms: _110  and  _111
REMARK   35  A    between atoms: _113  and  _115
REMARK   36  A    between atoms: _115  and  _116
REMARK   37  A    between atoms: _115  and  _118
REMARK   38  A    between atoms: _118  and  _119
REMARK   39  A    between atoms: _122  and  _124
REMARK   40  A    between atoms: _124  and  _125
REMARK   41  A    between atoms: _124  and  _127
REMARK   42  A    between atoms: _127  and  _128
REMARK   43  A    between atoms: _128  and  _130
REMARK   44  A    between atoms: _130  and  ZN_440
REMARK   45  A    between atoms: _132  and  _133
REMARK   46  A    between atoms: _138  and  _140
REMARK   47  A    between atoms: _140  and  _141
REMARK   48  A    between atoms: _140  and  _143
REMARK   49  A    between atoms: _143  and  _144
REMARK   50  A    between atoms: _150  and  _152
REMARK   51  A    between atoms: _152  and  _153
REMARK   52  A    between atoms: _152  and  _155
REMARK   53  A    between atoms: _155  and  _156
REMARK   54  A    between atoms: _156  and  _157
REMARK   55  A    between atoms: _157  and  _158
REMARK   56  A    between atoms: _167  and  _169
REMARK   57  A    between atoms: _169  and  _170
REMARK   58  A    between atoms: _169  and  _172
REMARK   59  A    between atoms: _172  and  _173
REMARK   60  A    between atoms: _178  and  _179
REMARK   61  A    between atoms: _181  and  _183
REMARK   62  A    between atoms: _183  and  _184
REMARK   63  A    between atoms: _183  and  _186
REMARK   64  A    between atoms: _186  and  _187
REMARK   65  A    between atoms: _189  and  _191
REMARK   66  A    between atoms: _191  and  _192
REMARK   67  A    between atoms: _191  and  _194
REMARK   68  A    between atoms: _194  and  _195
REMARK   69  A    between atoms: _200  and  _201
REMARK   70  A    between atoms: _203  and  _205
REMARK   71  A    between atoms: _205  and  _206
REMARK   72  A    between atoms: _205  and  _208
REMARK   73  A    between atoms: _208  and  _209
REMARK   74  A    between atoms: _209  and  _210
REMARK   75  A    between atoms: _210  and  _211
REMARK   76  A    between atoms: _211  and  _212
REMARK   77  A    between atoms: _216  and  _218
REMARK   78  A    between atoms: _218  and  _219
REMARK   79  A    between atoms: _218  and  _221
REMARK   80  A    between atoms: _221  and  _222
REMARK   81  A    between atoms: _225  and  _227
REMARK   82  A    between atoms: _227  and  _228
REMARK   83  A    between atoms: _227  and  _230
REMARK   84  A    between atoms: _230  and  _231
REMARK   85  A    between atoms: _234  and  _236
REMARK   86  A    between atoms: _236  and  _237
REMARK   87  A    between atoms: _236  and  _239
REMARK   88  A    between atoms: _239  and  _240
REMARK   89  A    between atoms: _243  and  _245
REMARK   90  A    between atoms: _245  and  _246
REMARK   91  A    between atoms: _245  and  _248
REMARK   92  A    between atoms: _248  and  _249
REMARK   93  A    between atoms: _255  and  _257
REMARK   94  A    between atoms: _257  and  _258
REMARK   95  A    between atoms: _257  and  _260
REMARK   96  A    between atoms: _260  and  _261
REMARK   97  A    between atoms: _261  and  _262
REMARK   98  A    between atoms: _262  and  _263
REMARK   99  A    between atoms: _272  and  _274
REMARK  100  A    between atoms: _274  and  _275
REMARK  101  A    between atoms: _274  and  _277
REMARK  102  A    between atoms: _277  and  _278
REMARK  103  A    between atoms: _283  and  _284
REMARK  104  A    between atoms: _286  and  _288
REMARK  105  A    between atoms: _288  and  _289
REMARK  106  A    between atoms: _288  and  _291
REMARK  107  A    between atoms: _291  and  _292
REMARK  108  A    between atoms: _295  and  _297
REMARK  109  A    between atoms: _297  and  _298
REMARK  110  A    between atoms: _297  and  _300
REMARK  111  A    between atoms: _300  and  _301
REMARK  112  A    between atoms: _311  and  _313
REMARK  113  A    between atoms: _313  and  _314
REMARK  114  A    between atoms: _313  and  _316
REMARK  115  A    between atoms: _316  and  _317
REMARK  116  A    between atoms: _322  and  _324
REMARK  117  A    between atoms: _324  and  _325
REMARK  118  A    between atoms: _324  and  _327
REMARK  119  A    between atoms: _327  and  _328
REMARK  120  A    between atoms: _332  and  ZN_440
REMARK  121  A    between atoms: _333  and  _335
REMARK  122  A    between atoms: _335  and  _336
REMARK  123  A    between atoms: _335  and  _338
REMARK  124  A    between atoms: _338  and  _339
REMARK  125  A    between atoms: _342  and  _344
REMARK  126  A    between atoms: _344  and  _345
REMARK  127  A    between atoms: _347  and  _349
REMARK  128  A    between atoms: _349  and  _350
REMARK  129  A    between atoms: _349  and  _352
REMARK  130  A    between atoms: _352  and  _353
REMARK  131  A    between atoms: _356  and  _358
REMARK  132  A    between atoms: _358  and  _359
REMARK  133  A    between atoms: _358  and  _361
REMARK  134  A    between atoms: _361  and  _362
REMARK  135  A    between atoms: _365  and  _367
REMARK  136  A    between atoms: _367  and  _368
REMARK  137  A    between atoms: _371  and  _373
REMARK  138  A    between atoms: _373  and  _374
REMARK  139  A    between atoms: _373  and  _376
REMARK  140  A    between atoms: _376  and  _377
REMARK  141  A    between atoms: _382  and  _383
REMARK  142  A    between atoms: _385  and  _387
REMARK  143  A    between atoms: _387  and  _388
REMARK  144  A    between atoms: _387  and  _390
REMARK  145  A    between atoms: _390  and  _391
REMARK  146  A    between atoms: _394  and  _396
REMARK  147  A    between atoms: _396  and  _397
REMARK  148  A    between atoms: _396  and  _399
REMARK  149  A    between atoms: _399  and  _400
REMARK  150  A    between atoms: _400  and  _401
REMARK  151  A    between atoms: _404  and  _406
REMARK  152  A    between atoms: _406  and  _407
REMARK  153  A    between atoms: _406  and  _409
REMARK  154  A    between atoms: _409  and  _410
REMARK  155  A    between atoms: _410  and  _411
REMARK  156  A    between atoms: _411  and  _412
REMARK  157  A    between atoms: _421  and  _423
REMARK  158  A    between atoms: _423  and  _424
REMARK  159  A    between atoms: _426  and  _428
REMARK  160  A    between atoms: _428  and  _429
REMARK  161  A    between atoms: _428  and  _431
REMARK  162  A    between atoms: _431  and  _432
REMARK  163  A    between atoms: _435  and  _437
REMARK  164  A    between atoms: _437  and  _438
REMARK                            x       y       z     vdW  Elec       q    Type
REMARK                         _______ _______ _______ _____ _____    ______ ____
ROOT
ATOM      1  O   HOH     1      34.219  69.237  13.767  0.00  0.00    +0.000 OA
ENDROOT
TORSDOF 0
REMARK  Name = ../refined-set-2016/3d52/3d52_pocket.pdb
REMARK  164 active torsions:
REMARK  status: ('A' for Active; 'I' for Inactive)
REMARK    1  A    between atoms: _1  and  _3
REMARK    2  A    between atoms: _14  and  _17
REMARK    3  A    between atoms: _17  and  _18
REMARK    4  A    between atoms: _25  and  _26
REMARK    5  A    between atoms: _33  and  _34
REMARK    6  A    between atoms: _39  and  _41
REMARK    7  A    between atoms: _41  and  _42
REMARK    8  A    between atoms: _44  and  _46
REMARK    9  A    between atoms: _46  and  _47
REMARK   10  A    between atoms: _46  and  _49
REMARK   11  A    between atoms: _49  and  _50
REMARK   12  A    between atoms: _60  and  _62
REMARK   13  A    between atoms: _62  and  _63
REMARK   14  A    between atoms: _62  and  _65
REMARK   15  A    between atoms: _65  and  _66
REMARK   16  A    between atoms: _69  and  _71
REMARK   17  A    between atoms: _71  and  _72
REMARK   18  A    between atoms: _71  and  _74
REMARK   19  A    between atoms: _74  and  _75
REMARK   20  A    between atoms: _75  and  _76
REMARK   21  A    between atoms: _81  and  _83
REMARK   22  A    between atoms: _83  and  _84
REMARK   23  A    between atoms: _83  and  _86
REMARK   24  A    between atoms: _86  and  _87
REMARK   25  A    between atoms: _92  and  _93
REMARK   26  A    between atoms: _95  and  _97
REMARK   27  A    between atoms: _97  and  _98
REMARK   28  A    between atoms: _97  and  _100
REMARK   29  A    between atoms: _100  and  _101
REMARK   30  A    between atoms: _104  and  _106
REMARK   31  A    between atoms: _106  and  _107
REMARK   32  A    between atoms: _106  and  _109
REMARK   33  A    between atoms: _109  and  _110
REMARK   34  A    between atoms: _110  and  _111
REMARK   35  A    between atoms: _113  and  _115
REMARK   36  A    between atoms: _115  and  _116
REMARK   37  A    between atoms: _115  and  _118
REMARK   38  A    between atoms: _118  and  _119
REMARK   39  A    between atoms: _122  and  _124
REMARK   40  A    between atoms: _124  and  _125
REMARK   41  A    between atoms: _124  and  _127
REMARK   42  A    between atoms: _127  and  _128
REMARK   43  A    between atoms: _128  and  _130
REMARK   44  A    between atoms: _130  and  ZN_440
REMARK   45  A    between atoms: _132  and  _133
REMARK   46  A    between atoms: _138  and  _140
REMARK   47  A    between atoms: _140  and  _141
REMARK   48  A    between atoms: _140  and  _143
REMARK   49  A    between atoms: _143  and  _144
REMARK   50  A    between atoms: _150  and  _152
REMARK   51  A    between atoms: _152  and  _153
REMARK   52  A    between atoms: _152  and  _155
REMARK   53  A    between atoms: _155  and  _156
REMARK   54  A    between atoms: _156  and  _157
REMARK   55  A    between atoms: _157  and  _158
REMARK   56  A    between atoms: _167  and  _169
REMARK   57  A    between atoms: _169  and  _170
REMARK   58  A    between atoms: _169  and  _172
REMARK   59  A    between atoms: _172  and  _173
REMARK   60  A    between atoms: _178  and  _179
REMARK   61  A    between atoms: _181  and  _183
REMARK   62  A    between atoms: _183  and  _184
REMARK   63  A    between atoms: _183  and  _186
REMARK   64  A    between atoms: _186  and  _187
REMARK   65  A    between atoms: _189  and  _191
REMARK   66  A    between atoms: _191  and  _192
REMARK   67  A    between atoms: _191  and  _194
REMARK   68  A    between atoms: _194  and  _195
REMARK   69  A    between atoms: _200  and  _201
REMARK   70  A    between atoms: _203  and  _205
REMARK   71  A    between atoms: _205  and  _206
REMARK   72  A    between atoms: _205  and  _208
REMARK   73  A    between atoms: _208  and  _209
REMARK   74  A    between atoms: _209  and  _210
REMARK   75  A    between atoms: _210  and  _211
REMARK   76  A    between atoms: _211  and  _212
REMARK   77  A    between atoms: _216  and  _218
REMARK   78  A    between atoms: _218  and  _219
REMARK   79  A    between atoms: _218  and  _221
REMARK   80  A    between atoms: _221  and  _222
REMARK   81  A    between atoms: _225  and  _227
REMARK   82  A    between atoms: _227  and  _228
REMARK   83  A    between atoms: _227  and  _230
REMARK   84  A    between atoms: _230  and  _231
REMARK   85  A    between atoms: _234  and  _236
REMARK   86  A    between atoms: _236  and  _237
REMARK   87  A    between atoms: _236  and  _239
REMARK   88  A    between atoms: _239  and  _240
REMARK   89  A    between atoms: _243  and  _245
REMARK   90  A    between atoms: _245  and  _246
REMARK   91  A    between atoms: _245  and  _248
REMARK   92  A    between atoms: _248  and  _249
REMARK   93  A    between atoms: _255  and  _257
REMARK   94  A    between atoms: _257  and  _258
REMARK   95  A    between atoms: _257  and  _260
REMARK   96  A    between atoms: _260  and  _261
REMARK   97  A    between atoms: _261  and  _262
REMARK   98  A    between atoms: _262  and  _263
REMARK   99  A    between atoms: _272  and  _274
REMARK  100  A    between atoms: _274  and  _275
REMARK  101  A    between atoms: _274  and  _277
REMARK  102  A    between atoms: _277  and  _278
REMARK  103  A    between atoms: _283  and  _284
REMARK  104  A    between atoms: _286  and  _288
REMARK  105  A    between atoms: _288  and  _289
REMARK  106  A    between atoms: _288  and  _291
REMARK  107  A    between atoms: _291  and  _292
REMARK  108  A    between atoms: _295  and  _297
REMARK  109  A    between atoms: _297  and  _298
REMARK  110  A    between atoms: _297  and  _300
REMARK  111  A    between atoms: _300  and  _301
REMARK  112  A    between atoms: _311  and  _313
REMARK  113  A    between atoms: _313  and  _314
REMARK  114  A    between atoms: _313  and  _316
REMARK  115  A    between atoms: _316  and  _317
REMARK  116  A    between atoms: _322  and  _324
REMARK  117  A    between atoms: _324  and  _325
REMARK  118  A    between atoms: _324  and  _327
REMARK  119  A    between atoms: _327  and  _328
REMARK  120  A    between atoms: _332  and  ZN_440
REMARK  121  A    between atoms: _333  and  _335
REMARK  122  A    between atoms: _335  and  _336
REMARK  123  A    between atoms: _335  and  _338
REMARK  124  A    between atoms: _338  and  _339
REMARK  125  A    between atoms: _342  and  _344
REMARK  126  A    between atoms: _344  and  _345
REMARK  127  A    between atoms: _347  and  _349
REMARK  128  A    between atoms: _349  and  _350
REMARK  129  A    between atoms: _349  and  _352
REMARK  130  A    between atoms: _352  and  _353
REMARK  131  A    between atoms: _356  and  _358
REMARK  132  A    between atoms: _358  and  _359
REMARK  133  A    between atoms: _358  and  _361
REMARK  134  A    between atoms: _361  and  _362
REMARK  135  A    between atoms: _365  and  _367
REMARK  136  A    between atoms: _367  and  _368
REMARK  137  A    between atoms: _371  and  _373
REMARK  138  A    between atoms: _373  and  _374
REMARK  139  A    between atoms: _373  and  _376
REMARK  140  A    between atoms: _376  and  _377
REMARK  141  A    between atoms: _382  and  _383
REMARK  142  A    between atoms: _385  and  _387
REMARK  143  A    between atoms: _387  and  _388
REMARK  144  A    between atoms: _387  and  _390
REMARK  145  A    between atoms: _390  and  _391
REMARK  146  A    between atoms: _394  and  _396
REMARK  147  A    between atoms: _396  and  _397
REMARK  148  A    between atoms: _396  and  _399
REMARK  149  A    between atoms: _399  and  _400
REMARK  150  A    between atoms: _400  and  _401
REMARK  151  A    between atoms: _404  and  _406
REMARK  152  A    between atoms: _406  and  _407
REMARK  153  A    between atoms: _406  and  _409
REMARK  154  A    between atoms: _409  and  _410
REMARK  155  A    between atoms: _410  and  _411
REMARK  156  A    between atoms: _411  and  _412
REMARK  157  A    between atoms: _421  and  _423
REMARK  158  A    between atoms: _423  and  _424
REMARK  159  A    between atoms: _426  and  _428
REMARK  160  A    between atoms: _428  and  _429
REMARK  161  A    between atoms: _428  and  _431
REMARK  162  A    between atoms: _431  and  _432
REMARK  163  A    between atoms: _435  and  _437
REMARK  164  A    between atoms: _437  and  _438
REMARK                            x       y       z     vdW  Elec       q    Type
REMARK                         _______ _______ _______ _____ _____    ______ ____
ROOT
ATOM      1  O   HOH     1      33.958  66.455  12.993  0.00  0.00    +0.000 OA
ENDROOT
TORSDOF 0
REMARK  Name = ../refined-set-2016/3d52/3d52_pocket.pdb
REMARK  164 active torsions:
REMARK  status: ('A' for Active; 'I' for Inactive)
REMARK    1  A    between atoms: _1  and  _3
REMARK    2  A    between atoms: _14  and  _17
REMARK    3  A    between atoms: _17  and  _18
REMARK    4  A    between atoms: _25  and  _26
REMARK    5  A    between atoms: _33  and  _34
REMARK    6  A    between atoms: _39  and  _41
REMARK    7  A    between atoms: _41  and  _42
REMARK    8  A    between atoms: _44  and  _46
REMARK    9  A    between atoms: _46  and  _47
REMARK   10  A    between atoms: _46  and  _49
REMARK   11  A    between atoms: _49  and  _50
REMARK   12  A    between atoms: _60  and  _62
REMARK   13  A    between atoms: _62  and  _63
REMARK   14  A    between atoms: _62  and  _65
REMARK   15  A    between atoms: _65  and  _66
REMARK   16  A    between atoms: _69  and  _71
REMARK   17  A    between atoms: _71  and  _72
REMARK   18  A    between atoms: _71  and  _74
REMARK   19  A    between atoms: _74  and  _75
REMARK   20  A    between atoms: _75  and  _76
REMARK   21  A    between atoms: _81  and  _83
REMARK   22  A    between atoms: _83  and  _84
REMARK   23  A    between atoms: _83  and  _86
REMARK   24  A    between atoms: _86  and  _87
REMARK   25  A    between atoms: _92  and  _93
REMARK   26  A    between atoms: _95  and  _97
REMARK   27  A    between atoms: _97  and  _98
REMARK   28  A    between atoms: _97  and  _100
REMARK   29  A    between atoms: _100  and  _101
REMARK   30  A    between atoms: _104  and  _106
REMARK   31  A    between atoms: _106  and  _107
REMARK   32  A    between atoms: _106  and  _109
REMARK   33  A    between atoms: _109  and  _110
REMARK   34  A    between atoms: _110  and  _111
REMARK   35  A    between atoms: _113  and  _115
REMARK   36  A    between atoms: _115  and  _116
REMARK   37  A    between atoms: _115  and  _118
REMARK   38  A    between atoms: _118  and  _119
REMARK   39  A    between atoms: _122  and  _124
REMARK   40  A    between atoms: _124  and  _125
REMARK   41  A    between atoms: _124  and  _127
REMARK   42  A    between atoms: _127  and  _128
REMARK   43  A    between atoms: _128  and  _130
REMARK   44  A    between atoms: _130  and  ZN_440
REMARK   45  A    between atoms: _132  and  _133
REMARK   46  A    between atoms: _138  and  _140
REMARK   47  A    between atoms: _140  and  _141
REMARK   48  A    between atoms: _140  and  _143
REMARK   49  A    between atoms: _143  and  _144
REMARK   50  A    between atoms: _150  and  _152
REMARK   51  A    between atoms: _152  and  _153
REMARK   52  A    between atoms: _152  and  _155
REMARK   53  A    between atoms: _155  and  _156
REMARK   54  A    between atoms: _156  and  _157
REMARK   55  A    between atoms: _157  and  _158
REMARK   56  A    between atoms: _167  and  _169
REMARK   57  A    between atoms: _169  and  _170
REMARK   58  A    between atoms: _169  and  _172
REMARK   59  A    between atoms: _172  and  _173
REMARK   60  A    between atoms: _178  and  _179
REMARK   61  A    between atoms: _181  and  _183
REMARK   62  A    between atoms: _183  and  _184
REMARK   63  A    between atoms: _183  and  _186
REMARK   64  A    between atoms: _186  and  _187
REMARK   65  A    between atoms: _189  and  _191
REMARK   66  A    between atoms: _191  and  _192
REMARK   67  A    between atoms: _191  and  _194
REMARK   68  A    between atoms: _194  and  _195
REMARK   69  A    between atoms: _200  and  _201
REMARK   70  A    between atoms: _203  and  _205
REMARK   71  A    between atoms: _205  and  _206
REMARK   72  A    between atoms: _205  and  _208
REMARK   73  A    between atoms: _208  and  _209
REMARK   74  A    between atoms: _209  and  _210
REMARK   75  A    between atoms: _210  and  _211
REMARK   76  A    between atoms: _211  and  _212
REMARK   77  A    between atoms: _216  and  _218
REMARK   78  A    between atoms: _218  and  _219
REMARK   79  A    between atoms: _218  and  _221
REMARK   80  A    between atoms: _221  and  _222
REMARK   81  A    between atoms: _225  and  _227
REMARK   82  A    between atoms: _227  and  _228
REMARK   83  A    between atoms: _227  and  _230
REMARK   84  A    between atoms: _230  and  _231
REMARK   85  A    between atoms: _234  and  _236
REMARK   86  A    between atoms: _236  and  _237
REMARK   87  A    between atoms: _236  and  _239
REMARK   88  A    between atoms: _239  and  _240
REMARK   89  A    between atoms: _243  and  _245
REMARK   90  A    between atoms: _245  and  _246
REMARK   91  A    between atoms: _245  and  _248
REMARK   92  A    between atoms: _248  and  _249
REMARK   93  A    between atoms: _255  and  _257
REMARK   94  A    between atoms: _257  and  _258
REMARK   95  A    between atoms: _257  and  _260
REMARK   96  A    between atoms: _260  and  _261
REMARK   97  A    between atoms: _261  and  _262
REMARK   98  A    between atoms: _262  and  _263
REMARK   99  A    between atoms: _272  and  _274
REMARK  100  A    between atoms: _274  and  _275
REMARK  101  A    between atoms: _274  and  _277
REMARK  102  A    between atoms: _277  and  _278
REMARK  103  A    between atoms: _283  and  _284
REMARK  104  A    between atoms: _286  and  _288
REMARK  105  A    between atoms: _288  and  _289
REMARK  106  A    between atoms: _288  and  _291
REMARK  107  A    between atoms: _291  and  _292
REMARK  108  A    between atoms: _295  and  _297
REMARK  109  A    between atoms: _297  and  _298
REMARK  110  A    between atoms: _297  and  _300
REMARK  111  A    between atoms: _300  and  _301
REMARK  112  A    between atoms: _311  and  _313
REMARK  113  A    between atoms: _313  and  _314
REMARK  114  A    between atoms: _313  and  _316
REMARK  115  A    between atoms: _316  and  _317
REMARK  116  A    between atoms: _322  and  _324
REMARK  117  A    between atoms: _324  and  _325
REMARK  118  A    between atoms: _324  and  _327
REMARK  119  A    between atoms: _327  and  _328
REMARK  120  A    between atoms: _332  and  ZN_440
REMARK  121  A    between atoms: _333  and  _335
REMARK  122  A    between atoms: _335  and  _336
REMARK  123  A    between atoms: _335  and  _338
REMARK  124  A    between atoms: _338  and  _339
REMARK  125  A    between atoms: _342  and  _344
REMARK  126  A    between atoms: _344  and  _345
REMARK  127  A    between atoms: _347  and  _349
REMARK  128  A    between atoms: _349  and  _350
REMARK  129  A    between atoms: _349  and  _352
REMARK  130  A    between atoms: _352  and  _353
REMARK  131  A    between atoms: _356  and  _358
REMARK  132  A    between atoms: _358  and  _359
REMARK  133  A    between atoms: _358  and  _361
REMARK  134  A    between atoms: _361  and  _362
REMARK  135  A    between atoms: _365  and  _367
REMARK  136  A    between atoms: _367  and  _368
REMARK  137  A    between atoms: _371  and  _373
REMARK  138  A    between atoms: _373  and  _374
REMARK  139  A    between atoms: _373  and  _376
REMARK  140  A    between atoms: _376  and  _377
REMARK  141  A    between atoms: _382  and  _383
REMARK  142  A    between atoms: _385  and  _387
REMARK  143  A    between atoms: _387  and  _388
REMARK  144  A    between atoms: _387  and  _390
REMARK  145  A    between atoms: _390  and  _391
REMARK  146  A    between atoms: _394  and  _396
REMARK  147  A    between atoms: _396  and  _397
REMARK  148  A    between atoms: _396  and  _399
REMARK  149  A    between atoms: _399  and  _400
REMARK  150  A    between atoms: _400  and  _401
REMARK  151  A    between atoms: _404  and  _406
REMARK  152  A    between atoms: _406  and  _407
REMARK  153  A    between atoms: _406  and  _409
REMARK  154  A    between atoms: _409  and  _410
REMARK  155  A    between atoms: _410  and  _411
REMARK  156  A    between atoms: _411  and  _412
REMARK  157  A    between atoms: _421  and  _423
REMARK  158  A    between atoms: _423  and  _424
REMARK  159  A    between atoms: _426  and  _428
REMARK  160  A    between atoms: _428  and  _429
REMARK  161  A    between atoms: _428  and  _431
REMARK  162  A    between atoms: _431  and  _432
REMARK  163  A    between atoms: _435  and  _437
REMARK  164  A    between atoms: _437  and  _438
REMARK                            x       y       z     vdW  Elec       q    Type
REMARK                         _______ _______ _______ _____ _____    ______ ____
ROOT
ATOM      1  O   HOH     1      35.419  68.878  19.029  0.00  0.00    +0.000 OA
ENDROOT
TORSDOF 0
REMARK  Name = ../refined-set-2016/3d52/3d52_pocket.pdb
REMARK  164 active torsions:
REMARK  status: ('A' for Active; 'I' for Inactive)
REMARK    1  A    between atoms: _1  and  _3
REMARK    2  A    between atoms: _14  and  _17
REMARK    3  A    between atoms: _17  and  _18
REMARK    4  A    between atoms: _25  and  _26
REMARK    5  A    between atoms: _33  and  _34
REMARK    6  A    between atoms: _39  and  _41
REMARK    7  A    between atoms: _41  and  _42
REMARK    8  A    between atoms: _44  and  _46
REMARK    9  A    between atoms: _46  and  _47
REMARK   10  A    between atoms: _46  and  _49
REMARK   11  A    between atoms: _49  and  _50
REMARK   12  A    between atoms: _60  and  _62
REMARK   13  A    between atoms: _62  and  _63
REMARK   14  A    between atoms: _62  and  _65
REMARK   15  A    between atoms: _65  and  _66
REMARK   16  A    between atoms: _69  and  _71
REMARK   17  A    between atoms: _71  and  _72
REMARK   18  A    between atoms: _71  and  _74
REMARK   19  A    between atoms: _74  and  _75
REMARK   20  A    between atoms: _75  and  _76
REMARK   21  A    between atoms: _81  and  _83
REMARK   22  A    between atoms: _83  and  _84
REMARK   23  A    between atoms: _83  and  _86
REMARK   24  A    between atoms: _86  and  _87
REMARK   25  A    between atoms: _92  and  _93
REMARK   26  A    between atoms: _95  and  _97
REMARK   27  A    between atoms: _97  and  _98
REMARK   28  A    between atoms: _97  and  _100
REMARK   29  A    between atoms: _100  and  _101
REMARK   30  A    between atoms: _104  and  _106
REMARK   31  A    between atoms: _106  and  _107
REMARK   32  A    between atoms: _106  and  _109
REMARK   33  A    between atoms: _109  and  _110
REMARK   34  A    between atoms: _110  and  _111
REMARK   35  A    between atoms: _113  and  _115
REMARK   36  A    between atoms: _115  and  _116
REMARK   37  A    between atoms: _115  and  _118
REMARK   38  A    between atoms: _118  and  _119
REMARK   39  A    between atoms: _122  and  _124
REMARK   40  A    between atoms: _124  and  _125
REMARK   41  A    between atoms: _124  and  _127
REMARK   42  A    between atoms: _127  and  _128
REMARK   43  A    between atoms: _128  and  _130
REMARK   44  A    between atoms: _130  and  ZN_440
REMARK   45  A    between atoms: _132  and  _133
REMARK   46  A    between atoms: _138  and  _140
REMARK   47  A    between atoms: _140  and  _141
REMARK   48  A    between atoms: _140  and  _143
REMARK   49  A    between atoms: _143  and  _144
REMARK   50  A    between atoms: _150  and  _152
REMARK   51  A    between atoms: _152  and  _153
REMARK   52  A    between atoms: _152  and  _155
REMARK   53  A    between atoms: _155  and  _156
REMARK   54  A    between atoms: _156  and  _157
REMARK   55  A    between atoms: _157  and  _158
REMARK   56  A    between atoms: _167  and  _169
REMARK   57  A    between atoms: _169  and  _170
REMARK   58  A    between atoms: _169  and  _172
REMARK   59  A    between atoms: _172  and  _173
REMARK   60  A    between atoms: _178  and  _179
REMARK   61  A    between atoms: _181  and  _183
REMARK   62  A    between atoms: _183  and  _184
REMARK   63  A    between atoms: _183  and  _186
REMARK   64  A    between atoms: _186  and  _187
REMARK   65  A    between atoms: _189  and  _191
REMARK   66  A    between atoms: _191  and  _192
REMARK   67  A    between atoms: _191  and  _194
REMARK   68  A    between atoms: _194  and  _195
REMARK   69  A    between atoms: _200  and  _201
REMARK   70  A    between atoms: _203  and  _205
REMARK   71  A    between atoms: _205  and  _206
REMARK   72  A    between atoms: _205  and  _208
REMARK   73  A    between atoms: _208  and  _209
REMARK   74  A    between atoms: _209  and  _210
REMARK   75  A    between atoms: _210  and  _211
REMARK   76  A    between atoms: _211  and  _212
REMARK   77  A    between atoms: _216  and  _218
REMARK   78  A    between atoms: _218  and  _219
REMARK   79  A    between atoms: _218  and  _221
REMARK   80  A    between atoms: _221  and  _222
REMARK   81  A    between atoms: _225  and  _227
REMARK   82  A    between atoms: _227  and  _228
REMARK   83  A    between atoms: _227  and  _230
REMARK   84  A    between atoms: _230  and  _231
REMARK   85  A    between atoms: _234  and  _236
REMARK   86  A    between atoms: _236  and  _237
REMARK   87  A    between atoms: _236  and  _239
REMARK   88  A    between atoms: _239  and  _240
REMARK   89  A    between atoms: _243  and  _245
REMARK   90  A    between atoms: _245  and  _246
REMARK   91  A    between atoms: _245  and  _248
REMARK   92  A    between atoms: _248  and  _249
REMARK   93  A    between atoms: _255  and  _257
REMARK   94  A    between atoms: _257  and  _258
REMARK   95  A    between atoms: _257  and  _260
REMARK   96  A    between atoms: _260  and  _261
REMARK   97  A    between atoms: _261  and  _262
REMARK   98  A    between atoms: _262  and  _263
REMARK   99  A    between atoms: _272  and  _274
REMARK  100  A    between atoms: _274  and  _275
REMARK  101  A    between atoms: _274  and  _277
REMARK  102  A    between atoms: _277  and  _278
REMARK  103  A    between atoms: _283  and  _284
REMARK  104  A    between atoms: _286  and  _288
REMARK  105  A    between atoms: _288  and  _289
REMARK  106  A    between atoms: _288  and  _291
REMARK  107  A    between atoms: _291  and  _292
REMARK  108  A    between atoms: _295  and  _297
REMARK  109  A    between atoms: _297  and  _298
REMARK  110  A    between atoms: _297  and  _300
REMARK  111  A    between atoms: _300  and  _301
REMARK  112  A    between atoms: _311  and  _313
REMARK  113  A    between atoms: _313  and  _314
REMARK  114  A    between atoms: _313  and  _316
REMARK  115  A    between atoms: _316  and  _317
REMARK  116  A    between atoms: _322  and  _324
REMARK  117  A    between atoms: _324  and  _325
REMARK  118  A    between atoms: _324  and  _327
REMARK  119  A    between atoms: _327  and  _328
REMARK  120  A    between atoms: _332  and  ZN_440
REMARK  121  A    between atoms: _333  and  _335
REMARK  122  A    between atoms: _335  and  _336
REMARK  123  A    between atoms: _335  and  _338
REMARK  124  A    between atoms: _338  and  _339
REMARK  125  A    between atoms: _342  and  _344
REMARK  126  A    between atoms: _344  and  _345
REMARK  127  A    between atoms: _347  and  _349
REMARK  128  A    between atoms: _349  and  _350
REMARK  129  A    between atoms: _349  and  _352
REMARK  130  A    between atoms: _352  and  _353
REMARK  131  A    between atoms: _356  and  _358
REMARK  132  A    between atoms: _358  and  _359
REMARK  133  A    between atoms: _358  and  _361
REMARK  134  A    between atoms: _361  and  _362
REMARK  135  A    between atoms: _365  and  _367
REMARK  136  A    between atoms: _367  and  _368
REMARK  137  A    between atoms: _371  and  _373
REMARK  138  A    between atoms: _373  and  _374
REMARK  139  A    between atoms: _373  and  _376
REMARK  140  A    between atoms: _376  and  _377
REMARK  141  A    between atoms: _382  and  _383
REMARK  142  A    between atoms: _385  and  _387
REMARK  143  A    between atoms: _387  and  _388
REMARK  144  A    between atoms: _387  and  _390
REMARK  145  A    between atoms: _390  and  _391
REMARK  146  A    between atoms: _394  and  _396
REMARK  147  A    between atoms: _396  and  _397
REMARK  148  A    between atoms: _396  and  _399
REMARK  149  A    between atoms: _399  and  _400
REMARK  150  A    between atoms: _400  and  _401
REMARK  151  A    between atoms: _404  and  _406
REMARK  152  A    between atoms: _406  and  _407
REMARK  153  A    between atoms: _406  and  _409
REMARK  154  A    between atoms: _409  and  _410
REMARK  155  A    between atoms: _410  and  _411
REMARK  156  A    between atoms: _411  and  _412
REMARK  157  A    between atoms: _421  and  _423
REMARK  158  A    between atoms: _423  and  _424
REMARK  159  A    between atoms: _426  and  _428
REMARK  160  A    between atoms: _428  and  _429
REMARK  161  A    between atoms: _428  and  _431
REMARK  162  A    between atoms: _431  and  _432
REMARK  163  A    between atoms: _435  and  _437
REMARK  164  A    between atoms: _437  and  _438
REMARK                            x       y       z     vdW  Elec       q    Type
REMARK                         _______ _______ _______ _____ _____    ______ ____
ROOT
ATOM      1  O   HOH     1      37.985  72.301  18.848  0.00  0.00    +0.000 OA
ENDROOT
TORSDOF 0
REMARK  Name = ../refined-set-2016/3d52/3d52_pocket.pdb
REMARK  164 active torsions:
REMARK  status: ('A' for Active; 'I' for Inactive)
REMARK    1  A    between atoms: _1  and  _3
REMARK    2  A    between atoms: _14  and  _17
REMARK    3  A    between atoms: _17  and  _18
REMARK    4  A    between atoms: _25  and  _26
REMARK    5  A    between atoms: _33  and  _34
REMARK    6  A    between atoms: _39  and  _41
REMARK    7  A    between atoms: _41  and  _42
REMARK    8  A    between atoms: _44  and  _46
REMARK    9  A    between atoms: _46  and  _47
REMARK   10  A    between atoms: _46  and  _49
REMARK   11  A    between atoms: _49  and  _50
REMARK   12  A    between atoms: _60  and  _62
REMARK   13  A    between atoms: _62  and  _63
REMARK   14  A    between atoms: _62  and  _65
REMARK   15  A    between atoms: _65  and  _66
REMARK   16  A    between atoms: _69  and  _71
REMARK   17  A    between atoms: _71  and  _72
REMARK   18  A    between atoms: _71  and  _74
REMARK   19  A    between atoms: _74  and  _75
REMARK   20  A    between atoms: _75  and  _76
REMARK   21  A    between atoms: _81  and  _83
REMARK   22  A    between atoms: _83  and  _84
REMARK   23  A    between atoms: _83  and  _86
REMARK   24  A    between atoms: _86  and  _87
REMARK   25  A    between atoms: _92  and  _93
REMARK   26  A    between atoms: _95  and  _97
REMARK   27  A    between atoms: _97  and  _98
REMARK   28  A    between atoms: _97  and  _100
REMARK   29  A    between atoms: _100  and  _101
REMARK   30  A    between atoms: _104  and  _106
REMARK   31  A    between atoms: _106  and  _107
REMARK   32  A    between atoms: _106  and  _109
REMARK   33  A    between atoms: _109  and  _110
REMARK   34  A    between atoms: _110  and  _111
REMARK   35  A    between atoms: _113  and  _115
REMARK   36  A    between atoms: _115  and  _116
REMARK   37  A    between atoms: _115  and  _118
REMARK   38  A    between atoms: _118  and  _119
REMARK   39  A    between atoms: _122  and  _124
REMARK   40  A    between atoms: _124  and  _125
REMARK   41  A    between atoms: _124  and  _127
REMARK   42  A    between atoms: _127  and  _128
REMARK   43  A    between atoms: _128  and  _130
REMARK   44  A    between atoms: _130  and  ZN_440
REMARK   45  A    between atoms: _132  and  _133
REMARK   46  A    between atoms: _138  and  _140
REMARK   47  A    between atoms: _140  and  _141
REMARK   48  A    between atoms: _140  and  _143
REMARK   49  A    between atoms: _143  and  _144
REMARK   50  A    between atoms: _150  and  _152
REMARK   51  A    between atoms: _152  and  _153
REMARK   52  A    between atoms: _152  and  _155
REMARK   53  A    between atoms: _155  and  _156
REMARK   54  A    between atoms: _156  and  _157
REMARK   55  A    between atoms: _157  and  _158
REMARK   56  A    between atoms: _167  and  _169
REMARK   57  A    between atoms: _169  and  _170
REMARK   58  A    between atoms: _169  and  _172
REMARK   59  A    between atoms: _172  and  _173
REMARK   60  A    between atoms: _178  and  _179
REMARK   61  A    between atoms: _181  and  _183
REMARK   62  A    between atoms: _183  and  _184
REMARK   63  A    between atoms: _183  and  _186
REMARK   64  A    between atoms: _186  and  _187
REMARK   65  A    between atoms: _189  and  _191
REMARK   66  A    between atoms: _191  and  _192
REMARK   67  A    between atoms: _191  and  _194
REMARK   68  A    between atoms: _194  and  _195
REMARK   69  A    between atoms: _200  and  _201
REMARK   70  A    between atoms: _203  and  _205
REMARK   71  A    between atoms: _205  and  _206
REMARK   72  A    between atoms: _205  and  _208
REMARK   73  A    between atoms: _208  and  _209
REMARK   74  A    between atoms: _209  and  _210
REMARK   75  A    between atoms: _210  and  _211
REMARK   76  A    between atoms: _211  and  _212
REMARK   77  A    between atoms: _216  and  _218
REMARK   78  A    between atoms: _218  and  _219
REMARK   79  A    between atoms: _218  and  _221
REMARK   80  A    between atoms: _221  and  _222
REMARK   81  A    between atoms: _225  and  _227
REMARK   82  A    between atoms: _227  and  _228
REMARK   83  A    between atoms: _227  and  _230
REMARK   84  A    between atoms: _230  and  _231
REMARK   85  A    between atoms: _234  and  _236
REMARK   86  A    between atoms: _236  and  _237
REMARK   87  A    between atoms: _236  and  _239
REMARK   88  A    between atoms: _239  and  _240
REMARK   89  A    between atoms: _243  and  _245
REMARK   90  A    between atoms: _245  and  _246
REMARK   91  A    between atoms: _245  and  _248
REMARK   92  A    between atoms: _248  and  _249
REMARK   93  A    between atoms: _255  and  _257
REMARK   94  A    between atoms: _257  and  _258
REMARK   95  A    between atoms: _257  and  _260
REMARK   96  A    between atoms: _260  and  _261
REMARK   97  A    between atoms: _261  and  _262
REMARK   98  A    between atoms: _262  and  _263
REMARK   99  A    between atoms: _272  and  _274
REMARK  100  A    between atoms: _274  and  _275
REMARK  101  A    between atoms: _274  and  _277
REMARK  102  A    between atoms: _277  and  _278
REMARK  103  A    between atoms: _283  and  _284
REMARK  104  A    between atoms: _286  and  _288
REMARK  105  A    between atoms: _288  and  _289
REMARK  106  A    between atoms: _288  and  _291
REMARK  107  A    between atoms: _291  and  _292
REMARK  108  A    between atoms: _295  and  _297
REMARK  109  A    between atoms: _297  and  _298
REMARK  110  A    between atoms: _297  and  _300
REMARK  111  A    between atoms: _300  and  _301
REMARK  112  A    between atoms: _311  and  _313
REMARK  113  A    between atoms: _313  and  _314
REMARK  114  A    between atoms: _313  and  _316
REMARK  115  A    between atoms: _316  and  _317
REMARK  116  A    between atoms: _322  and  _324
REMARK  117  A    between atoms: _324  and  _325
REMARK  118  A    between atoms: _324  and  _327
REMARK  119  A    between atoms: _327  and  _328
REMARK  120  A    between atoms: _332  and  ZN_440
REMARK  121  A    between atoms: _333  and  _335
REMARK  122  A    between atoms: _335  and  _336
REMARK  123  A    between atoms: _335  and  _338
REMARK  124  A    between atoms: _338  and  _339
REMARK  125  A    between atoms: _342  and  _344
REMARK  126  A    between atoms: _344  and  _345
REMARK  127  A    between atoms: _347  and  _349
REMARK  128  A    between atoms: _349  and  _350
REMARK  129  A    between atoms: _349  and  _352
REMARK  130  A    between atoms: _352  and  _353
REMARK  131  A    between atoms: _356  and  _358
REMARK  132  A    between atoms: _358  and  _359
REMARK  133  A    between atoms: _358  and  _361
REMARK  134  A    between atoms: _361  and  _362
REMARK  135  A    between atoms: _365  and  _367
REMARK  136  A    between atoms: _367  and  _368
REMARK  137  A    between atoms: _371  and  _373
REMARK  138  A    between atoms: _373  and  _374
REMARK  139  A    between atoms: _373  and  _376
REMARK  140  A    between atoms: _376  and  _377
REMARK  141  A    between atoms: _382  and  _383
REMARK  142  A    between atoms: _385  and  _387
REMARK  143  A    between atoms: _387  and  _388
REMARK  144  A    between atoms: _387  and  _390
REMARK  145  A    between atoms: _390  and  _391
REMARK  146  A    between atoms: _394  and  _396
REMARK  147  A    between atoms: _396  and  _397
REMARK  148  A    between atoms: _396  and  _399
REMARK  149  A    between atoms: _399  and  _400
REMARK  150  A    between atoms: _400  and  _401
REMARK  151  A    between atoms: _404  and  _406
REMARK  152  A    between atoms: _406  and  _407
REMARK  153  A    between atoms: _406  and  _409
REMARK  154  A    between atoms: _409  and  _410
REMARK  155  A    between atoms: _410  and  _411
REMARK  156  A    between atoms: _411  and  _412
REMARK  157  A    between atoms: _421  and  _423
REMARK  158  A    between atoms: _423  and  _424
REMARK  159  A    between atoms: _426  and  _428
REMARK  160  A    between atoms: _428  and  _429
REMARK  161  A    between atoms: _428  and  _431
REMARK  162  A    between atoms: _431  and  _432
REMARK  163  A    between atoms: _435  and  _437
REMARK  164  A    between atoms: _437  and  _438
REMARK                            x       y       z     vdW  Elec       q    Type
REMARK                         _______ _______ _______ _____ _____    ______ ____
ROOT
ATOM      1  O   HOH     1      34.937  72.662  15.657  0.00  0.00    +0.000 OA
ENDROOT
TORSDOF 0
REMARK  Name = ../refined-set-2016/3d52/3d52_pocket.pdb
REMARK  164 active torsions:
REMARK  status: ('A' for Active; 'I' for Inactive)
REMARK    1  A    between atoms: _1  and  _3
REMARK    2  A    between atoms: _14  and  _17
REMARK    3  A    between atoms: _17  and  _18
REMARK    4  A    between atoms: _25  and  _26
REMARK    5  A    between atoms: _33  and  _34
REMARK    6  A    between atoms: _39  and  _41
REMARK    7  A    between atoms: _41  and  _42
REMARK    8  A    between atoms: _44  and  _46
REMARK    9  A    between atoms: _46  and  _47
REMARK   10  A    between atoms: _46  and  _49
REMARK   11  A    between atoms: _49  and  _50
REMARK   12  A    between atoms: _60  and  _62
REMARK   13  A    between atoms: _62  and  _63
REMARK   14  A    between atoms: _62  and  _65
REMARK   15  A    between atoms: _65  and  _66
REMARK   16  A    between atoms: _69  and  _71
REMARK   17  A    between atoms: _71  and  _72
REMARK   18  A    between atoms: _71  and  _74
REMARK   19  A    between atoms: _74  and  _75
REMARK   20  A    between atoms: _75  and  _76
REMARK   21  A    between atoms: _81  and  _83
REMARK   22  A    between atoms: _83  and  _84
REMARK   23  A    between atoms: _83  and  _86
REMARK   24  A    between atoms: _86  and  _87
REMARK   25  A    between atoms: _92  and  _93
REMARK   26  A    between atoms: _95  and  _97
REMARK   27  A    between atoms: _97  and  _98
REMARK   28  A    between atoms: _97  and  _100
REMARK   29  A    between atoms: _100  and  _101
REMARK   30  A    between atoms: _104  and  _106
REMARK   31  A    between atoms: _106  and  _107
REMARK   32  A    between atoms: _106  and  _109
REMARK   33  A    between atoms: _109  and  _110
REMARK   34  A    between atoms: _110  and  _111
REMARK   35  A    between atoms: _113  and  _115
REMARK   36  A    between atoms: _115  and  _116
REMARK   37  A    between atoms: _115  and  _118
REMARK   38  A    between atoms: _118  and  _119
REMARK   39  A    between atoms: _122  and  _124
REMARK   40  A    between atoms: _124  and  _125
REMARK   41  A    between atoms: _124  and  _127
REMARK   42  A    between atoms: _127  and  _128
REMARK   43  A    between atoms: _128  and  _130
REMARK   44  A    between atoms: _130  and  ZN_440
REMARK   45  A    between atoms: _132  and  _133
REMARK   46  A    between atoms: _138  and  _140
REMARK   47  A    between atoms: _140  and  _141
REMARK   48  A    between atoms: _140  and  _143
REMARK   49  A    between atoms: _143  and  _144
REMARK   50  A    between atoms: _150  and  _152
REMARK   51  A    between atoms: _152  and  _153
REMARK   52  A    between atoms: _152  and  _155
REMARK   53  A    between atoms: _155  and  _156
REMARK   54  A    between atoms: _156  and  _157
REMARK   55  A    between atoms: _157  and  _158
REMARK   56  A    between atoms: _167  and  _169
REMARK   57  A    between atoms: _169  and  _170
REMARK   58  A    between atoms: _169  and  _172
REMARK   59  A    between atoms: _172  and  _173
REMARK   60  A    between atoms: _178  and  _179
REMARK   61  A    between atoms: _181  and  _183
REMARK   62  A    between atoms: _183  and  _184
REMARK   63  A    between atoms: _183  and  _186
REMARK   64  A    between atoms: _186  and  _187
REMARK   65  A    between atoms: _189  and  _191
REMARK   66  A    between atoms: _191  and  _192
REMARK   67  A    between atoms: _191  and  _194
REMARK   68  A    between atoms: _194  and  _195
REMARK   69  A    between atoms: _200  and  _201
REMARK   70  A    between atoms: _203  and  _205
REMARK   71  A    between atoms: _205  and  _206
REMARK   72  A    between atoms: _205  and  _208
REMARK   73  A    between atoms: _208  and  _209
REMARK   74  A    between atoms: _209  and  _210
REMARK   75  A    between atoms: _210  and  _211
REMARK   76  A    between atoms: _211  and  _212
REMARK   77  A    between atoms: _216  and  _218
REMARK   78  A    between atoms: _218  and  _219
REMARK   79  A    between atoms: _218  and  _221
REMARK   80  A    between atoms: _221  and  _222
REMARK   81  A    between atoms: _225  and  _227
REMARK   82  A    between atoms: _227  and  _228
REMARK   83  A    between atoms: _227  and  _230
REMARK   84  A    between atoms: _230  and  _231
REMARK   85  A    between atoms: _234  and  _236
REMARK   86  A    between atoms: _236  and  _237
REMARK   87  A    between atoms: _236  and  _239
REMARK   88  A    between atoms: _239  and  _240
REMARK   89  A    between atoms: _243  and  _245
REMARK   90  A    between atoms: _245  and  _246
REMARK   91  A    between atoms: _245  and  _248
REMARK   92  A    between atoms: _248  and  _249
REMARK   93  A    between atoms: _255  and  _257
REMARK   94  A    between atoms: _257  and  _258
REMARK   95  A    between atoms: _257  and  _260
REMARK   96  A    between atoms: _260  and  _261
REMARK   97  A    between atoms: _261  and  _262
REMARK   98  A    between atoms: _262  and  _263
REMARK   99  A    between atoms: _272  and  _274
REMARK  100  A    between atoms: _274  and  _275
REMARK  101  A    between atoms: _274  and  _277
REMARK  102  A    between atoms: _277  and  _278
REMARK  103  A    between atoms: _283  and  _284
REMARK  104  A    between atoms: _286  and  _288
REMARK  105  A    between atoms: _288  and  _289
REMARK  106  A    between atoms: _288  and  _291
REMARK  107  A    between atoms: _291  and  _292
REMARK  108  A    between atoms: _295  and  _297
REMARK  109  A    between atoms: _297  and  _298
REMARK  110  A    between atoms: _297  and  _300
REMARK  111  A    between atoms: _300  and  _301
REMARK  112  A    between atoms: _311  and  _313
REMARK  113  A    between atoms: _313  and  _314
REMARK  114  A    between atoms: _313  and  _316
REMARK  115  A    between atoms: _316  and  _317
REMARK  116  A    between atoms: _322  and  _324
REMARK  117  A    between atoms: _324  and  _325
REMARK  118  A    between atoms: _324  and  _327
REMARK  119  A    between atoms: _327  and  _328
REMARK  120  A    between atoms: _332  and  ZN_440
REMARK  121  A    between atoms: _333  and  _335
REMARK  122  A    between atoms: _335  and  _336
REMARK  123  A    between atoms: _335  and  _338
REMARK  124  A    between atoms: _338  and  _339
REMARK  125  A    between atoms: _342  and  _344
REMARK  126  A    between atoms: _344  and  _345
REMARK  127  A    between atoms: _347  and  _349
REMARK  128  A    between atoms: _349  and  _350
REMARK  129  A    between atoms: _349  and  _352
REMARK  130  A    between atoms: _352  and  _353
REMARK  131  A    between atoms: _356  and  _358
REMARK  132  A    between atoms: _358  and  _359
REMARK  133  A    between atoms: _358  and  _361
REMARK  134  A    between atoms: _361  and  _362
REMARK  135  A    between atoms: _365  and  _367
REMARK  136  A    between atoms: _367  and  _368
REMARK  137  A    between atoms: _371  and  _373
REMARK  138  A    between atoms: _373  and  _374
REMARK  139  A    between atoms: _373  and  _376
REMARK  140  A    between atoms: _376  and  _377
REMARK  141  A    between atoms: _382  and  _383
REMARK  142  A    between atoms: _385  and  _387
REMARK  143  A    between atoms: _387  and  _388
REMARK  144  A    between atoms: _387  and  _390
REMARK  145  A    between atoms: _390  and  _391
REMARK  146  A    between atoms: _394  and  _396
REMARK  147  A    between atoms: _396  and  _397
REMARK  148  A    between atoms: _396  and  _399
REMARK  149  A    between atoms: _399  and  _400
REMARK  150  A    between atoms: _400  and  _401
REMARK  151  A    between atoms: _404  and  _406
REMARK  152  A    between atoms: _406  and  _407
REMARK  153  A    between atoms: _406  and  _409
REMARK  154  A    between atoms: _409  and  _410
REMARK  155  A    between atoms: _410  and  _411
REMARK  156  A    between atoms: _411  and  _412
REMARK  157  A    between atoms: _421  and  _423
REMARK  158  A    between atoms: _423  and  _424
REMARK  159  A    between atoms: _426  and  _428
REMARK  160  A    between atoms: _428  and  _429
REMARK  161  A    between atoms: _428  and  _431
REMARK  162  A    between atoms: _431  and  _432
REMARK  163  A    between atoms: _435  and  _437
REMARK  164  A    between atoms: _437  and  _438
REMARK                            x       y       z     vdW  Elec       q    Type
REMARK                         _______ _______ _______ _____ _____    ______ ____
ROOT
ATOM      1  O   HOH     1      20.448  66.832   8.947  0.00  0.00    +0.000 OA
ENDROOT
TORSDOF 0
REMARK  Name = ../refined-set-2016/3d52/3d52_pocket.pdb
REMARK  164 active torsions:
REMARK  status: ('A' for Active; 'I' for Inactive)
REMARK    1  A    between atoms: _1  and  _3
REMARK    2  A    between atoms: _14  and  _17
REMARK    3  A    between atoms: _17  and  _18
REMARK    4  A    between atoms: _25  and  _26
REMARK    5  A    between atoms: _33  and  _34
REMARK    6  A    between atoms: _39  and  _41
REMARK    7  A    between atoms: _41  and  _42
REMARK    8  A    between atoms: _44  and  _46
REMARK    9  A    between atoms: _46  and  _47
REMARK   10  A    between atoms: _46  and  _49
REMARK   11  A    between atoms: _49  and  _50
REMARK   12  A    between atoms: _60  and  _62
REMARK   13  A    between atoms: _62  and  _63
REMARK   14  A    between atoms: _62  and  _65
REMARK   15  A    between atoms: _65  and  _66
REMARK   16  A    between atoms: _69  and  _71
REMARK   17  A    between atoms: _71  and  _72
REMARK   18  A    between atoms: _71  and  _74
REMARK   19  A    between atoms: _74  and  _75
REMARK   20  A    between atoms: _75  and  _76
REMARK   21  A    between atoms: _81  and  _83
REMARK   22  A    between atoms: _83  and  _84
REMARK   23  A    between atoms: _83  and  _86
REMARK   24  A    between atoms: _86  and  _87
REMARK   25  A    between atoms: _92  and  _93
REMARK   26  A    between atoms: _95  and  _97
REMARK   27  A    between atoms: _97  and  _98
REMARK   28  A    between atoms: _97  and  _100
REMARK   29  A    between atoms: _100  and  _101
REMARK   30  A    between atoms: _104  and  _106
REMARK   31  A    between atoms: _106  and  _107
REMARK   32  A    between atoms: _106  and  _109
REMARK   33  A    between atoms: _109  and  _110
REMARK   34  A    between atoms: _110  and  _111
REMARK   35  A    between atoms: _113  and  _115
REMARK   36  A    between atoms: _115  and  _116
REMARK   37  A    between atoms: _115  and  _118
REMARK   38  A    between atoms: _118  and  _119
REMARK   39  A    between atoms: _122  and  _124
REMARK   40  A    between atoms: _124  and  _125
REMARK   41  A    between atoms: _124  and  _127
REMARK   42  A    between atoms: _127  and  _128
REMARK   43  A    between atoms: _128  and  _130
REMARK   44  A    between atoms: _130  and  ZN_440
REMARK   45  A    between atoms: _132  and  _133
REMARK   46  A    between atoms: _138  and  _140
REMARK   47  A    between atoms: _140  and  _141
REMARK   48  A    between atoms: _140  and  _143
REMARK   49  A    between atoms: _143  and  _144
REMARK   50  A    between atoms: _150  and  _152
REMARK   51  A    between atoms: _152  and  _153
REMARK   52  A    between atoms: _152  and  _155
REMARK   53  A    between atoms: _155  and  _156
REMARK   54  A    between atoms: _156  and  _157
REMARK   55  A    between atoms: _157  and  _158
REMARK   56  A    between atoms: _167  and  _169
REMARK   57  A    between atoms: _169  and  _170
REMARK   58  A    between atoms: _169  and  _172
REMARK   59  A    between atoms: _172  and  _173
REMARK   60  A    between atoms: _178  and  _179
REMARK   61  A    between atoms: _181  and  _183
REMARK   62  A    between atoms: _183  and  _184
REMARK   63  A    between atoms: _183  and  _186
REMARK   64  A    between atoms: _186  and  _187
REMARK   65  A    between atoms: _189  and  _191
REMARK   66  A    between atoms: _191  and  _192
REMARK   67  A    between atoms: _191  and  _194
REMARK   68  A    between atoms: _194  and  _195
REMARK   69  A    between atoms: _200  and  _201
REMARK   70  A    between atoms: _203  and  _205
REMARK   71  A    between atoms: _205  and  _206
REMARK   72  A    between atoms: _205  and  _208
REMARK   73  A    between atoms: _208  and  _209
REMARK   74  A    between atoms: _209  and  _210
REMARK   75  A    between atoms: _210  and  _211
REMARK   76  A    between atoms: _211  and  _212
REMARK   77  A    between atoms: _216  and  _218
REMARK   78  A    between atoms: _218  and  _219
REMARK   79  A    between atoms: _218  and  _221
REMARK   80  A    between atoms: _221  and  _222
REMARK   81  A    between atoms: _225  and  _227
REMARK   82  A    between atoms: _227  and  _228
REMARK   83  A    between atoms: _227  and  _230
REMARK   84  A    between atoms: _230  and  _231
REMARK   85  A    between atoms: _234  and  _236
REMARK   86  A    between atoms: _236  and  _237
REMARK   87  A    between atoms: _236  and  _239
REMARK   88  A    between atoms: _239  and  _240
REMARK   89  A    between atoms: _243  and  _245
REMARK   90  A    between atoms: _245  and  _246
REMARK   91  A    between atoms: _245  and  _248
REMARK   92  A    between atoms: _248  and  _249
REMARK   93  A    between atoms: _255  and  _257
REMARK   94  A    between atoms: _257  and  _258
REMARK   95  A    between atoms: _257  and  _260
REMARK   96  A    between atoms: _260  and  _261
REMARK   97  A    between atoms: _261  and  _262
REMARK   98  A    between atoms: _262  and  _263
REMARK   99  A    between atoms: _272  and  _274
REMARK  100  A    between atoms: _274  and  _275
REMARK  101  A    between atoms: _274  and  _277
REMARK  102  A    between atoms: _277  and  _278
REMARK  103  A    between atoms: _283  and  _284
REMARK  104  A    between atoms: _286  and  _288
REMARK  105  A    between atoms: _288  and  _289
REMARK  106  A    between atoms: _288  and  _291
REMARK  107  A    between atoms: _291  and  _292
REMARK  108  A    between atoms: _295  and  _297
REMARK  109  A    between atoms: _297  and  _298
REMARK  110  A    between atoms: _297  and  _300
REMARK  111  A    between atoms: _300  and  _301
REMARK  112  A    between atoms: _311  and  _313
REMARK  113  A    between atoms: _313  and  _314
REMARK  114  A    between atoms: _313  and  _316
REMARK  115  A    between atoms: _316  and  _317
REMARK  116  A    between atoms: _322  and  _324
REMARK  117  A    between atoms: _324  and  _325
REMARK  118  A    between atoms: _324  and  _327
REMARK  119  A    between atoms: _327  and  _328
REMARK  120  A    between atoms: _332  and  ZN_440
REMARK  121  A    between atoms: _333  and  _335
REMARK  122  A    between atoms: _335  and  _336
REMARK  123  A    between atoms: _335  and  _338
REMARK  124  A    between atoms: _338  and  _339
REMARK  125  A    between atoms: _342  and  _344
REMARK  126  A    between atoms: _344  and  _345
REMARK  127  A    between atoms: _347  and  _349
REMARK  128  A    between atoms: _349  and  _350
REMARK  129  A    between atoms: _349  and  _352
REMARK  130  A    between atoms: _352  and  _353
REMARK  131  A    between atoms: _356  and  _358
REMARK  132  A    between atoms: _358  and  _359
REMARK  133  A    between atoms: _358  and  _361
REMARK  134  A    between atoms: _361  and  _362
REMARK  135  A    between atoms: _365  and  _367
REMARK  136  A    between atoms: _367  and  _368
REMARK  137  A    between atoms: _371  and  _373
REMARK  138  A    between atoms: _373  and  _374
REMARK  139  A    between atoms: _373  and  _376
REMARK  140  A    between atoms: _376  and  _377
REMARK  141  A    between atoms: _382  and  _383
REMARK  142  A    between atoms: _385  and  _387
REMARK  143  A    between atoms: _387  and  _388
REMARK  144  A    between atoms: _387  and  _390
REMARK  145  A    between atoms: _390  and  _391
REMARK  146  A    between atoms: _394  and  _396
REMARK  147  A    between atoms: _396  and  _397
REMARK  148  A    between atoms: _396  and  _399
REMARK  149  A    between atoms: _399  and  _400
REMARK  150  A    between atoms: _400  and  _401
REMARK  151  A    between atoms: _404  and  _406
REMARK  152  A    between atoms: _406  and  _407
REMARK  153  A    between atoms: _406  and  _409
REMARK  154  A    between atoms: _409  and  _410
REMARK  155  A    between atoms: _410  and  _411
REMARK  156  A    between atoms: _411  and  _412
REMARK  157  A    between atoms: _421  and  _423
REMARK  158  A    between atoms: _423  and  _424
REMARK  159  A    between atoms: _426  and  _428
REMARK  160  A    between atoms: _428  and  _429
REMARK  161  A    between atoms: _428  and  _431
REMARK  162  A    between atoms: _431  and  _432
REMARK  163  A    between atoms: _435  and  _437
REMARK  164  A    between atoms: _437  and  _438
REMARK                            x       y       z     vdW  Elec       q    Type
REMARK                         _______ _______ _______ _____ _____    ______ ____
ROOT
ATOM      1  O   HOH     1      20.526  64.089   8.164  0.00  0.00    +0.000 OA
ENDROOT
TORSDOF 0
REMARK  Name = ../refined-set-2016/3d52/3d52_pocket.pdb
REMARK  164 active torsions:
REMARK  status: ('A' for Active; 'I' for Inactive)
REMARK    1  A    between atoms: _1  and  _3
REMARK    2  A    between atoms: _14  and  _17
REMARK    3  A    between atoms: _17  and  _18
REMARK    4  A    between atoms: _25  and  _26
REMARK    5  A    between atoms: _33  and  _34
REMARK    6  A    between atoms: _39  and  _41
REMARK    7  A    between atoms: _41  and  _42
REMARK    8  A    between atoms: _44  and  _46
REMARK    9  A    between atoms: _46  and  _47
REMARK   10  A    between atoms: _46  and  _49
REMARK   11  A    between atoms: _49  and  _50
REMARK   12  A    between atoms: _60  and  _62
REMARK   13  A    between atoms: _62  and  _63
REMARK   14  A    between atoms: _62  and  _65
REMARK   15  A    between atoms: _65  and  _66
REMARK   16  A    between atoms: _69  and  _71
REMARK   17  A    between atoms: _71  and  _72
REMARK   18  A    between atoms: _71  and  _74
REMARK   19  A    between atoms: _74  and  _75
REMARK   20  A    between atoms: _75  and  _76
REMARK   21  A    between atoms: _81  and  _83
REMARK   22  A    between atoms: _83  and  _84
REMARK   23  A    between atoms: _83  and  _86
REMARK   24  A    between atoms: _86  and  _87
REMARK   25  A    between atoms: _92  and  _93
REMARK   26  A    between atoms: _95  and  _97
REMARK   27  A    between atoms: _97  and  _98
REMARK   28  A    between atoms: _97  and  _100
REMARK   29  A    between atoms: _100  and  _101
REMARK   30  A    between atoms: _104  and  _106
REMARK   31  A    between atoms: _106  and  _107
REMARK   32  A    between atoms: _106  and  _109
REMARK   33  A    between atoms: _109  and  _110
REMARK   34  A    between atoms: _110  and  _111
REMARK   35  A    between atoms: _113  and  _115
REMARK   36  A    between atoms: _115  and  _116
REMARK   37  A    between atoms: _115  and  _118
REMARK   38  A    between atoms: _118  and  _119
REMARK   39  A    between atoms: _122  and  _124
REMARK   40  A    between atoms: _124  and  _125
REMARK   41  A    between atoms: _124  and  _127
REMARK   42  A    between atoms: _127  and  _128
REMARK   43  A    between atoms: _128  and  _130
REMARK   44  A    between atoms: _130  and  ZN_440
REMARK   45  A    between atoms: _132  and  _133
REMARK   46  A    between atoms: _138  and  _140
REMARK   47  A    between atoms: _140  and  _141
REMARK   48  A    between atoms: _140  and  _143
REMARK   49  A    between atoms: _143  and  _144
REMARK   50  A    between atoms: _150  and  _152
REMARK   51  A    between atoms: _152  and  _153
REMARK   52  A    between atoms: _152  and  _155
REMARK   53  A    between atoms: _155  and  _156
REMARK   54  A    between atoms: _156  and  _157
REMARK   55  A    between atoms: _157  and  _158
REMARK   56  A    between atoms: _167  and  _169
REMARK   57  A    between atoms: _169  and  _170
REMARK   58  A    between atoms: _169  and  _172
REMARK   59  A    between atoms: _172  and  _173
REMARK   60  A    between atoms: _178  and  _179
REMARK   61  A    between atoms: _181  and  _183
REMARK   62  A    between atoms: _183  and  _184
REMARK   63  A    between atoms: _183  and  _186
REMARK   64  A    between atoms: _186  and  _187
REMARK   65  A    between atoms: _189  and  _191
REMARK   66  A    between atoms: _191  and  _192
REMARK   67  A    between atoms: _191  and  _194
REMARK   68  A    between atoms: _194  and  _195
REMARK   69  A    between atoms: _200  and  _201
REMARK   70  A    between atoms: _203  and  _205
REMARK   71  A    between atoms: _205  and  _206
REMARK   72  A    between atoms: _205  and  _208
REMARK   73  A    between atoms: _208  and  _209
REMARK   74  A    between atoms: _209  and  _210
REMARK   75  A    between atoms: _210  and  _211
REMARK   76  A    between atoms: _211  and  _212
REMARK   77  A    between atoms: _216  and  _218
REMARK   78  A    between atoms: _218  and  _219
REMARK   79  A    between atoms: _218  and  _221
REMARK   80  A    between atoms: _221  and  _222
REMARK   81  A    between atoms: _225  and  _227
REMARK   82  A    between atoms: _227  and  _228
REMARK   83  A    between atoms: _227  and  _230
REMARK   84  A    between atoms: _230  and  _231
REMARK   85  A    between atoms: _234  and  _236
REMARK   86  A    between atoms: _236  and  _237
REMARK   87  A    between atoms: _236  and  _239
REMARK   88  A    between atoms: _239  and  _240
REMARK   89  A    between atoms: _243  and  _245
REMARK   90  A    between atoms: _245  and  _246
REMARK   91  A    between atoms: _245  and  _248
REMARK   92  A    between atoms: _248  and  _249
REMARK   93  A    between atoms: _255  and  _257
REMARK   94  A    between atoms: _257  and  _258
REMARK   95  A    between atoms: _257  and  _260
REMARK   96  A    between atoms: _260  and  _261
REMARK   97  A    between atoms: _261  and  _262
REMARK   98  A    between atoms: _262  and  _263
REMARK   99  A    between atoms: _272  and  _274
REMARK  100  A    between atoms: _274  and  _275
REMARK  101  A    between atoms: _274  and  _277
REMARK  102  A    between atoms: _277  and  _278
REMARK  103  A    between atoms: _283  and  _284
REMARK  104  A    between atoms: _286  and  _288
REMARK  105  A    between atoms: _288  and  _289
REMARK  106  A    between atoms: _288  and  _291
REMARK  107  A    between atoms: _291  and  _292
REMARK  108  A    between atoms: _295  and  _297
REMARK  109  A    between atoms: _297  and  _298
REMARK  110  A    between atoms: _297  and  _300
REMARK  111  A    between atoms: _300  and  _301
REMARK  112  A    between atoms: _311  and  _313
REMARK  113  A    between atoms: _313  and  _314
REMARK  114  A    between atoms: _313  and  _316
REMARK  115  A    between atoms: _316  and  _317
REMARK  116  A    between atoms: _322  and  _324
REMARK  117  A    between atoms: _324  and  _325
REMARK  118  A    between atoms: _324  and  _327
REMARK  119  A    between atoms: _327  and  _328
REMARK  120  A    between atoms: _332  and  ZN_440
REMARK  121  A    between atoms: _333  and  _335
REMARK  122  A    between atoms: _335  and  _336
REMARK  123  A    between atoms: _335  and  _338
REMARK  124  A    between atoms: _338  and  _339
REMARK  125  A    between atoms: _342  and  _344
REMARK  126  A    between atoms: _344  and  _345
REMARK  127  A    between atoms: _347  and  _349
REMARK  128  A    between atoms: _349  and  _350
REMARK  129  A    between atoms: _349  and  _352
REMARK  130  A    between atoms: _352  and  _353
REMARK  131  A    between atoms: _356  and  _358
REMARK  132  A    between atoms: _358  and  _359
REMARK  133  A    between atoms: _358  and  _361
REMARK  134  A    between atoms: _361  and  _362
REMARK  135  A    between atoms: _365  and  _367
REMARK  136  A    between atoms: _367  and  _368
REMARK  137  A    between atoms: _371  and  _373
REMARK  138  A    between atoms: _373  and  _374
REMARK  139  A    between atoms: _373  and  _376
REMARK  140  A    between atoms: _376  and  _377
REMARK  141  A    between atoms: _382  and  _383
REMARK  142  A    between atoms: _385  and  _387
REMARK  143  A    between atoms: _387  and  _388
REMARK  144  A    between atoms: _387  and  _390
REMARK  145  A    between atoms: _390  and  _391
REMARK  146  A    between atoms: _394  and  _396
REMARK  147  A    between atoms: _396  and  _397
REMARK  148  A    between atoms: _396  and  _399
REMARK  149  A    between atoms: _399  and  _400
REMARK  150  A    between atoms: _400  and  _401
REMARK  151  A    between atoms: _404  and  _406
REMARK  152  A    between atoms: _406  and  _407
REMARK  153  A    between atoms: _406  and  _409
REMARK  154  A    between atoms: _409  and  _410
REMARK  155  A    between atoms: _410  and  _411
REMARK  156  A    between atoms: _411  and  _412
REMARK  157  A    between atoms: _421  and  _423
REMARK  158  A    between atoms: _423  and  _424
REMARK  159  A    between atoms: _426  and  _428
REMARK  160  A    between atoms: _428  and  _429
REMARK  161  A    between atoms: _428  and  _431
REMARK  162  A    between atoms: _431  and  _432
REMARK  163  A    between atoms: _435  and  _437
REMARK  164  A    between atoms: _437  and  _438
REMARK                            x       y       z     vdW  Elec       q    Type
REMARK                         _______ _______ _______ _____ _____    ______ ____
ROOT
ATOM      1  O   HOH     1      20.972  63.983  12.227  0.00  0.00    +0.000 OA
ENDROOT
TORSDOF 0
REMARK  Name = ../refined-set-2016/3d52/3d52_pocket.pdb
REMARK  164 active torsions:
REMARK  status: ('A' for Active; 'I' for Inactive)
REMARK    1  A    between atoms: _1  and  _3
REMARK    2  A    between atoms: _14  and  _17
REMARK    3  A    between atoms: _17  and  _18
REMARK    4  A    between atoms: _25  and  _26
REMARK    5  A    between atoms: _33  and  _34
REMARK    6  A    between atoms: _39  and  _41
REMARK    7  A    between atoms: _41  and  _42
REMARK    8  A    between atoms: _44  and  _46
REMARK    9  A    between atoms: _46  and  _47
REMARK   10  A    between atoms: _46  and  _49
REMARK   11  A    between atoms: _49  and  _50
REMARK   12  A    between atoms: _60  and  _62
REMARK   13  A    between atoms: _62  and  _63
REMARK   14  A    between atoms: _62  and  _65
REMARK   15  A    between atoms: _65  and  _66
REMARK   16  A    between atoms: _69  and  _71
REMARK   17  A    between atoms: _71  and  _72
REMARK   18  A    between atoms: _71  and  _74
REMARK   19  A    between atoms: _74  and  _75
REMARK   20  A    between atoms: _75  and  _76
REMARK   21  A    between atoms: _81  and  _83
REMARK   22  A    between atoms: _83  and  _84
REMARK   23  A    between atoms: _83  and  _86
REMARK   24  A    between atoms: _86  and  _87
REMARK   25  A    between atoms: _92  and  _93
REMARK   26  A    between atoms: _95  and  _97
REMARK   27  A    between atoms: _97  and  _98
REMARK   28  A    between atoms: _97  and  _100
REMARK   29  A    between atoms: _100  and  _101
REMARK   30  A    between atoms: _104  and  _106
REMARK   31  A    between atoms: _106  and  _107
REMARK   32  A    between atoms: _106  and  _109
REMARK   33  A    between atoms: _109  and  _110
REMARK   34  A    between atoms: _110  and  _111
REMARK   35  A    between atoms: _113  and  _115
REMARK   36  A    between atoms: _115  and  _116
REMARK   37  A    between atoms: _115  and  _118
REMARK   38  A    between atoms: _118  and  _119
REMARK   39  A    between atoms: _122  and  _124
REMARK   40  A    between atoms: _124  and  _125
REMARK   41  A    between atoms: _124  and  _127
REMARK   42  A    between atoms: _127  and  _128
REMARK   43  A    between atoms: _128  and  _130
REMARK   44  A    between atoms: _130  and  ZN_440
REMARK   45  A    between atoms: _132  and  _133
REMARK   46  A    between atoms: _138  and  _140
REMARK   47  A    between atoms: _140  and  _141
REMARK   48  A    between atoms: _140  and  _143
REMARK   49  A    between atoms: _143  and  _144
REMARK   50  A    between atoms: _150  and  _152
REMARK   51  A    between atoms: _152  and  _153
REMARK   52  A    between atoms: _152  and  _155
REMARK   53  A    between atoms: _155  and  _156
REMARK   54  A    between atoms: _156  and  _157
REMARK   55  A    between atoms: _157  and  _158
REMARK   56  A    between atoms: _167  and  _169
REMARK   57  A    between atoms: _169  and  _170
REMARK   58  A    between atoms: _169  and  _172
REMARK   59  A    between atoms: _172  and  _173
REMARK   60  A    between atoms: _178  and  _179
REMARK   61  A    between atoms: _181  and  _183
REMARK   62  A    between atoms: _183  and  _184
REMARK   63  A    between atoms: _183  and  _186
REMARK   64  A    between atoms: _186  and  _187
REMARK   65  A    between atoms: _189  and  _191
REMARK   66  A    between atoms: _191  and  _192
REMARK   67  A    between atoms: _191  and  _194
REMARK   68  A    between atoms: _194  and  _195
REMARK   69  A    between atoms: _200  and  _201
REMARK   70  A    between atoms: _203  and  _205
REMARK   71  A    between atoms: _205  and  _206
REMARK   72  A    between atoms: _205  and  _208
REMARK   73  A    between atoms: _208  and  _209
REMARK   74  A    between atoms: _209  and  _210
REMARK   75  A    between atoms: _210  and  _211
REMARK   76  A    between atoms: _211  and  _212
REMARK   77  A    between atoms: _216  and  _218
REMARK   78  A    between atoms: _218  and  _219
REMARK   79  A    between atoms: _218  and  _221
REMARK   80  A    between atoms: _221  and  _222
REMARK   81  A    between atoms: _225  and  _227
REMARK   82  A    between atoms: _227  and  _228
REMARK   83  A    between atoms: _227  and  _230
REMARK   84  A    between atoms: _230  and  _231
REMARK   85  A    between atoms: _234  and  _236
REMARK   86  A    between atoms: _236  and  _237
REMARK   87  A    between atoms: _236  and  _239
REMARK   88  A    between atoms: _239  and  _240
REMARK   89  A    between atoms: _243  and  _245
REMARK   90  A    between atoms: _245  and  _246
REMARK   91  A    between atoms: _245  and  _248
REMARK   92  A    between atoms: _248  and  _249
REMARK   93  A    between atoms: _255  and  _257
REMARK   94  A    between atoms: _257  and  _258
REMARK   95  A    between atoms: _257  and  _260
REMARK   96  A    between atoms: _260  and  _261
REMARK   97  A    between atoms: _261  and  _262
REMARK   98  A    between atoms: _262  and  _263
REMARK   99  A    between atoms: _272  and  _274
REMARK  100  A    between atoms: _274  and  _275
REMARK  101  A    between atoms: _274  and  _277
REMARK  102  A    between atoms: _277  and  _278
REMARK  103  A    between atoms: _283  and  _284
REMARK  104  A    between atoms: _286  and  _288
REMARK  105  A    between atoms: _288  and  _289
REMARK  106  A    between atoms: _288  and  _291
REMARK  107  A    between atoms: _291  and  _292
REMARK  108  A    between atoms: _295  and  _297
REMARK  109  A    between atoms: _297  and  _298
REMARK  110  A    between atoms: _297  and  _300
REMARK  111  A    between atoms: _300  and  _301
REMARK  112  A    between atoms: _311  and  _313
REMARK  113  A    between atoms: _313  and  _314
REMARK  114  A    between atoms: _313  and  _316
REMARK  115  A    between atoms: _316  and  _317
REMARK  116  A    between atoms: _322  and  _324
REMARK  117  A    between atoms: _324  and  _325
REMARK  118  A    between atoms: _324  and  _327
REMARK  119  A    between atoms: _327  and  _328
REMARK  120  A    between atoms: _332  and  ZN_440
REMARK  121  A    between atoms: _333  and  _335
REMARK  122  A    between atoms: _335  and  _336
REMARK  123  A    between atoms: _335  and  _338
REMARK  124  A    between atoms: _338  and  _339
REMARK  125  A    between atoms: _342  and  _344
REMARK  126  A    between atoms: _344  and  _345
REMARK  127  A    between atoms: _347  and  _349
REMARK  128  A    between atoms: _349  and  _350
REMARK  129  A    between atoms: _349  and  _352
REMARK  130  A    between atoms: _352  and  _353
REMARK  131  A    between atoms: _356  and  _358
REMARK  132  A    between atoms: _358  and  _359
REMARK  133  A    between atoms: _358  and  _361
REMARK  134  A    between atoms: _361  and  _362
REMARK  135  A    between atoms: _365  and  _367
REMARK  136  A    between atoms: _367  and  _368
REMARK  137  A    between atoms: _371  and  _373
REMARK  138  A    between atoms: _373  and  _374
REMARK  139  A    between atoms: _373  and  _376
REMARK  140  A    between atoms: _376  and  _377
REMARK  141  A    between atoms: _382  and  _383
REMARK  142  A    between atoms: _385  and  _387
REMARK  143  A    between atoms: _387  and  _388
REMARK  144  A    between atoms: _387  and  _390
REMARK  145  A    between atoms: _390  and  _391
REMARK  146  A    between atoms: _394  and  _396
REMARK  147  A    between atoms: _396  and  _397
REMARK  148  A    between atoms: _396  and  _399
REMARK  149  A    between atoms: _399  and  _400
REMARK  150  A    between atoms: _400  and  _401
REMARK  151  A    between atoms: _404  and  _406
REMARK  152  A    between atoms: _406  and  _407
REMARK  153  A    between atoms: _406  and  _409
REMARK  154  A    between atoms: _409  and  _410
REMARK  155  A    between atoms: _410  and  _411
REMARK  156  A    between atoms: _411  and  _412
REMARK  157  A    between atoms: _421  and  _423
REMARK  158  A    between atoms: _423  and  _424
REMARK  159  A    between atoms: _426  and  _428
REMARK  160  A    between atoms: _428  and  _429
REMARK  161  A    between atoms: _428  and  _431
REMARK  162  A    between atoms: _431  and  _432
REMARK  163  A    between atoms: _435  and  _437
REMARK  164  A    between atoms: _437  and  _438
REMARK                            x       y       z     vdW  Elec       q    Type
REMARK                         _______ _______ _______ _____ _____    ______ ____
ROOT
ATOM      1  O   HOH     1      36.341  70.469  23.555  0.00  0.00    +0.000 OA
ENDROOT
TORSDOF 0
