REMARK  Name = ../refined-set-2016/5c5t/5c5t_pocket.pdb
REMARK  163 active torsions:
REMARK  status: ('A' for Active; 'I' for Inactive)
REMARK    1  A    between atoms: _1  and  _3
REMARK    2  A    between atoms: _3  and  _4
REMARK    3  A    between atoms: _3  and  _6
REMARK    4  A    between atoms: _6  and  _7
REMARK    5  A    between atoms: _7  and  _8
REMARK    6  A    between atoms: _8  and  _9
REMARK    7  A    between atoms: _18  and  _20
REMARK    8  A    between atoms: _20  and  _21
REMARK    9  A    between atoms: _20  and  _23
REMARK   10  A    between atoms: _23  and  _24
REMARK   11  A    between atoms: _26  and  _28
REMARK   12  A    between atoms: _28  and  _29
REMARK   13  A    between atoms: _28  and  _31
REMARK   14  A    between atoms: _31  and  _32
REMARK   15  A    between atoms: _32  and  _33
REMARK   16  A    between atoms: _38  and  _40
REMARK   17  A    between atoms: _40  and  _41
REMARK   18  A    between atoms: _40  and  _43
REMARK   19  A    between atoms: _43  and  _44
REMARK   20  A    between atoms: _44  and  _45
REMARK   21  A    between atoms: _50  and  _52
REMARK   22  A    between atoms: _52  and  _53
REMARK   23  A    between atoms: _56  and  _58
REMARK   24  A    between atoms: _58  and  _59
REMARK   25  A    between atoms: _58  and  _61
REMARK   26  A    between atoms: _61  and  _62
REMARK   27  A    between atoms: _62  and  _63
REMARK   28  A    between atoms: _63  and  _64
REMARK   29  A    between atoms: _73  and  _75
REMARK   30  A    between atoms: _75  and  _76
REMARK   31  A    between atoms: _75  and  _78
REMARK   32  A    between atoms: _78  and  _79
REMARK   33  A    between atoms: _84  and  _85
REMARK   34  A    between atoms: _87  and  _89
REMARK   35  A    between atoms: _89  and  _90
REMARK   36  A    between atoms: _89  and  _92
REMARK   37  A    between atoms: _92  and  _93
REMARK   38  A    between atoms: _93  and  _94
REMARK   39  A    between atoms: _99  and  _101
REMARK   40  A    between atoms: _101  and  _102
REMARK   41  A    between atoms: _101  and  _104
REMARK   42  A    between atoms: _104  and  _105
REMARK   43  A    between atoms: _110  and  _111
REMARK   44  A    between atoms: _113  and  _115
REMARK   45  A    between atoms: _115  and  _116
REMARK   46  A    between atoms: _115  and  _118
REMARK   47  A    between atoms: _118  and  _119
REMARK   48  A    between atoms: _124  and  _125
REMARK   49  A    between atoms: _127  and  _129
REMARK   50  A    between atoms: _129  and  _130
REMARK   51  A    between atoms: _129  and  _132
REMARK   52  A    between atoms: _132  and  _133
REMARK   53  A    between atoms: _138  and  _139
REMARK   54  A    between atoms: _141  and  _143
REMARK   55  A    between atoms: _143  and  _144
REMARK   56  A    between atoms: _143  and  _146
REMARK   57  A    between atoms: _146  and  _147
REMARK   58  A    between atoms: _152  and  _154
REMARK   59  A    between atoms: _165  and  _168
REMARK   60  A    between atoms: _168  and  _169
REMARK   61  A    between atoms: _174  and  _175
REMARK   62  A    between atoms: _179  and  _180
REMARK   63  A    between atoms: _186  and  _188
REMARK   64  A    between atoms: _188  and  _189
REMARK   65  A    between atoms: _188  and  _191
REMARK   66  A    between atoms: _191  and  _192
REMARK   67  A    between atoms: _192  and  _193
REMARK   68  A    between atoms: _193  and  _194
REMARK   69  A    between atoms: _203  and  _205
REMARK   70  A    between atoms: _205  and  _206
REMARK   71  A    between atoms: _205  and  _208
REMARK   72  A    between atoms: _208  and  _209
REMARK   73  A    between atoms: _212  and  _214
REMARK   74  A    between atoms: _214  and  _215
REMARK   75  A    between atoms: _214  and  _217
REMARK   76  A    between atoms: _217  and  _218
REMARK   77  A    between atoms: _218  and  _219
REMARK   78  A    between atoms: _221  and  _223
REMARK   79  A    between atoms: _223  and  _224
REMARK   80  A    between atoms: _223  and  _226
REMARK   81  A    between atoms: _226  and  _227
REMARK   82  A    between atoms: _232  and  _233
REMARK   83  A    between atoms: _235  and  _237
REMARK   84  A    between atoms: _237  and  _238
REMARK   85  A    between atoms: _240  and  _242
REMARK   86  A    between atoms: _242  and  _243
REMARK   87  A    between atoms: _242  and  _245
REMARK   88  A    between atoms: _245  and  _246
REMARK   89  A    between atoms: _246  and  _247
REMARK   90  A    between atoms: _250  and  _252
REMARK   91  A    between atoms: _252  and  _253
REMARK   92  A    between atoms: _252  and  _255
REMARK   93  A    between atoms: _255  and  _256
REMARK   94  A    between atoms: _259  and  _261
REMARK   95  A    between atoms: _261  and  _262
REMARK   96  A    between atoms: _261  and  _264
REMARK   97  A    between atoms: _264  and  _265
REMARK   98  A    between atoms: _268  and  _270
REMARK   99  A    between atoms: _270  and  _271
REMARK  100  A    between atoms: _270  and  _273
REMARK  101  A    between atoms: _273  and  _274
REMARK  102  A    between atoms: _280  and  _282
REMARK  103  A    between atoms: _282  and  _283
REMARK  104  A    between atoms: _282  and  _285
REMARK  105  A    between atoms: _285  and  _286
REMARK  106  A    between atoms: _290  and  _291
REMARK  107  A    between atoms: _296  and  _298
REMARK  108  A    between atoms: _298  and  _299
REMARK  109  A    between atoms: _298  and  _301
REMARK  110  A    between atoms: _301  and  _302
REMARK  111  A    between atoms: _305  and  _307
REMARK  112  A    between atoms: _307  and  _308
REMARK  113  A    between atoms: _307  and  _310
REMARK  114  A    between atoms: _310  and  _311
REMARK  115  A    between atoms: _317  and  _319
REMARK  116  A    between atoms: _319  and  _320
REMARK  117  A    between atoms: _319  and  _322
REMARK  118  A    between atoms: _322  and  _323
REMARK  119  A    between atoms: _326  and  _328
REMARK  120  A    between atoms: _328  and  _329
REMARK  121  A    between atoms: _328  and  _331
REMARK  122  A    between atoms: _331  and  _332
REMARK  123  A    between atoms: _335  and  _337
REMARK  124  A    between atoms: _337  and  _338
REMARK  125  A    between atoms: _337  and  _340
REMARK  126  A    between atoms: _340  and  _341
REMARK  127  A    between atoms: _345  and  ZN_438
REMARK  128  A    between atoms: _346  and  _348
REMARK  129  A    between atoms: _348  and  _349
REMARK  130  A    between atoms: _352  and  _354
REMARK  131  A    between atoms: _354  and  _355
REMARK  132  A    between atoms: _357  and  _359
REMARK  133  A    between atoms: _359  and  _360
REMARK  134  A    between atoms: _359  and  _362
REMARK  135  A    between atoms: _362  and  _363
REMARK  136  A    between atoms: _366  and  _368
REMARK  137  A    between atoms: _368  and  _369
REMARK  138  A    between atoms: _368  and  _371
REMARK  139  A    between atoms: _374  and  _376
REMARK  140  A    between atoms: _376  and  _377
REMARK  141  A    between atoms: _376  and  _379
REMARK  142  A    between atoms: _379  and  _380
REMARK  143  A    between atoms: _380  and  _381
REMARK  144  A    between atoms: _381  and  _382
REMARK  145  A    between atoms: _382  and  _383
REMARK  146  A    between atoms: _387  and  _389
REMARK  147  A    between atoms: _389  and  _390
REMARK  148  A    between atoms: _389  and  _392
REMARK  149  A    between atoms: _392  and  _393
REMARK  150  A    between atoms: _396  and  _398
REMARK  151  A    between atoms: _398  and  _399
REMARK  152  A    between atoms: _398  and  _401
REMARK  153  A    between atoms: _401  and  _402
REMARK  154  A    between atoms: _405  and  _407
REMARK  155  A    between atoms: _407  and  _408
REMARK  156  A    between atoms: _411  and  _413
REMARK  157  A    between atoms: _413  and  _414
REMARK  158  A    between atoms: _413  and  _416
REMARK  159  A    between atoms: _416  and  _417
REMARK  160  A    between atoms: _422  and  _424
REMARK  161  A    between atoms: _424  and  _425
REMARK  162  A    between atoms: _424  and  _427
REMARK  163  A    between atoms: _427  and  _428
REMARK                            x       y       z     vdW  Elec       q    Type
REMARK                         _______ _______ _______ _____ _____    ______ ____
ROOT
ATOM      1  NE  ARG A   1      -4.569  15.338 -14.597  0.00  0.00    -0.265 N 
ATOM      2  CZ  ARG A   1      -3.774  14.723 -13.720  0.00  0.00    +0.342 C 
ATOM      3  NH2 ARG A   1      -4.138  14.652 -12.442  0.00  0.00    -0.292 N 
ATOM      4 HH21 ARG A   1      -3.524  14.174 -11.752  0.00  0.00    +0.255 HD
ATOM      5 HH22 ARG A   1      -5.037  15.074 -12.133  0.00  0.00    +0.255 HD
ATOM      6  NH1 ARG A   1      -2.623  14.173 -14.119  0.00  0.00    -0.292 N 
ATOM      7 HH11 ARG A   1      -2.008  13.695 -13.429  0.00  0.00    +0.255 HD
ATOM      8 HH12 ARG A   1      -2.342  14.223 -15.119  0.00  0.00    +0.255 HD
ATOM      9  HE  ARG A   1      -4.265  15.368 -15.591  0.00  0.00    +0.259 HD
ENDROOT
BRANCH   1  10
ATOM     10  CD  ARG A   1      -5.846  15.975 -14.248  0.00  0.00    +0.174 C 
BRANCH  10  11
ATOM     11  CG  ARG A   1      -6.649  16.330 -15.480  0.00  0.00    +0.045 C 
BRANCH  11  12
ATOM     12  CB  ARG A   1      -7.030  15.073 -16.250  0.00  0.00    +0.029 C 
BRANCH  12  13
ATOM     13  CA  ARG A   1      -7.782  15.365 -17.537  0.00  0.00    +0.133 C 
BRANCH  13  14
ATOM     14  N   ARG A   1      -8.290  14.136 -18.120  0.00  0.00    -0.239 NA
ATOM     15  H   ARG A   1      -7.715  13.271 -18.072  0.00  0.00    +0.142 HD
ENDBRANCH  13  14
BRANCH  13  16
ATOM     16  C   ARG A   1      -6.879  16.114 -18.498  0.00  0.00    +0.224 C 
ATOM     17  O   ARG A   1      -5.942  15.558 -19.090  0.00  0.00    -0.287 OA
ENDBRANCH  13  16
ENDBRANCH  12  13
ENDBRANCH  11  12
ENDBRANCH  10  11
ENDBRANCH   1  10
TORSDOF 6
REMARK  Name = ../refined-set-2016/5c5t/5c5t_pocket.pdb
REMARK  163 active torsions:
REMARK  status: ('A' for Active; 'I' for Inactive)
REMARK    1  A    between atoms: _1  and  _3
REMARK    2  A    between atoms: _3  and  _4
REMARK    3  A    between atoms: _3  and  _6
REMARK    4  A    between atoms: _6  and  _7
REMARK    5  A    between atoms: _7  and  _8
REMARK    6  A    between atoms: _8  and  _9
REMARK    7  A    between atoms: _18  and  _20
REMARK    8  A    between atoms: _20  and  _21
REMARK    9  A    between atoms: _20  and  _23
REMARK   10  A    between atoms: _23  and  _24
REMARK   11  A    between atoms: _26  and  _28
REMARK   12  A    between atoms: _28  and  _29
REMARK   13  A    between atoms: _28  and  _31
REMARK   14  A    between atoms: _31  and  _32
REMARK   15  A    between atoms: _32  and  _33
REMARK   16  A    between atoms: _38  and  _40
REMARK   17  A    between atoms: _40  and  _41
REMARK   18  A    between atoms: _40  and  _43
REMARK   19  A    between atoms: _43  and  _44
REMARK   20  A    between atoms: _44  and  _45
REMARK   21  A    between atoms: _50  and  _52
REMARK   22  A    between atoms: _52  and  _53
REMARK   23  A    between atoms: _56  and  _58
REMARK   24  A    between atoms: _58  and  _59
REMARK   25  A    between atoms: _58  and  _61
REMARK   26  A    between atoms: _61  and  _62
REMARK   27  A    between atoms: _62  and  _63
REMARK   28  A    between atoms: _63  and  _64
REMARK   29  A    between atoms: _73  and  _75
REMARK   30  A    between atoms: _75  and  _76
REMARK   31  A    between atoms: _75  and  _78
REMARK   32  A    between atoms: _78  and  _79
REMARK   33  A    between atoms: _84  and  _85
REMARK   34  A    between atoms: _87  and  _89
REMARK   35  A    between atoms: _89  and  _90
REMARK   36  A    between atoms: _89  and  _92
REMARK   37  A    between atoms: _92  and  _93
REMARK   38  A    between atoms: _93  and  _94
REMARK   39  A    between atoms: _99  and  _101
REMARK   40  A    between atoms: _101  and  _102
REMARK   41  A    between atoms: _101  and  _104
REMARK   42  A    between atoms: _104  and  _105
REMARK   43  A    between atoms: _110  and  _111
REMARK   44  A    between atoms: _113  and  _115
REMARK   45  A    between atoms: _115  and  _116
REMARK   46  A    between atoms: _115  and  _118
REMARK   47  A    between atoms: _118  and  _119
REMARK   48  A    between atoms: _124  and  _125
REMARK   49  A    between atoms: _127  and  _129
REMARK   50  A    between atoms: _129  and  _130
REMARK   51  A    between atoms: _129  and  _132
REMARK   52  A    between atoms: _132  and  _133
REMARK   53  A    between atoms: _138  and  _139
REMARK   54  A    between atoms: _141  and  _143
REMARK   55  A    between atoms: _143  and  _144
REMARK   56  A    between atoms: _143  and  _146
REMARK   57  A    between atoms: _146  and  _147
REMARK   58  A    between atoms: _152  and  _154
REMARK   59  A    between atoms: _165  and  _168
REMARK   60  A    between atoms: _168  and  _169
REMARK   61  A    between atoms: _174  and  _175
REMARK   62  A    between atoms: _179  and  _180
REMARK   63  A    between atoms: _186  and  _188
REMARK   64  A    between atoms: _188  and  _189
REMARK   65  A    between atoms: _188  and  _191
REMARK   66  A    between atoms: _191  and  _192
REMARK   67  A    between atoms: _192  and  _193
REMARK   68  A    between atoms: _193  and  _194
REMARK   69  A    between atoms: _203  and  _205
REMARK   70  A    between atoms: _205  and  _206
REMARK   71  A    between atoms: _205  and  _208
REMARK   72  A    between atoms: _208  and  _209
REMARK   73  A    between atoms: _212  and  _214
REMARK   74  A    between atoms: _214  and  _215
REMARK   75  A    between atoms: _214  and  _217
REMARK   76  A    between atoms: _217  and  _218
REMARK   77  A    between atoms: _218  and  _219
REMARK   78  A    between atoms: _221  and  _223
REMARK   79  A    between atoms: _223  and  _224
REMARK   80  A    between atoms: _223  and  _226
REMARK   81  A    between atoms: _226  and  _227
REMARK   82  A    between atoms: _232  and  _233
REMARK   83  A    between atoms: _235  and  _237
REMARK   84  A    between atoms: _237  and  _238
REMARK   85  A    between atoms: _240  and  _242
REMARK   86  A    between atoms: _242  and  _243
REMARK   87  A    between atoms: _242  and  _245
REMARK   88  A    between atoms: _245  and  _246
REMARK   89  A    between atoms: _246  and  _247
REMARK   90  A    between atoms: _250  and  _252
REMARK   91  A    between atoms: _252  and  _253
REMARK   92  A    between atoms: _252  and  _255
REMARK   93  A    between atoms: _255  and  _256
REMARK   94  A    between atoms: _259  and  _261
REMARK   95  A    between atoms: _261  and  _262
REMARK   96  A    between atoms: _261  and  _264
REMARK   97  A    between atoms: _264  and  _265
REMARK   98  A    between atoms: _268  and  _270
REMARK   99  A    between atoms: _270  and  _271
REMARK  100  A    between atoms: _270  and  _273
REMARK  101  A    between atoms: _273  and  _274
REMARK  102  A    between atoms: _280  and  _282
REMARK  103  A    between atoms: _282  and  _283
REMARK  104  A    between atoms: _282  and  _285
REMARK  105  A    between atoms: _285  and  _286
REMARK  106  A    between atoms: _290  and  _291
REMARK  107  A    between atoms: _296  and  _298
REMARK  108  A    between atoms: _298  and  _299
REMARK  109  A    between atoms: _298  and  _301
REMARK  110  A    between atoms: _301  and  _302
REMARK  111  A    between atoms: _305  and  _307
REMARK  112  A    between atoms: _307  and  _308
REMARK  113  A    between atoms: _307  and  _310
REMARK  114  A    between atoms: _310  and  _311
REMARK  115  A    between atoms: _317  and  _319
REMARK  116  A    between atoms: _319  and  _320
REMARK  117  A    between atoms: _319  and  _322
REMARK  118  A    between atoms: _322  and  _323
REMARK  119  A    between atoms: _326  and  _328
REMARK  120  A    between atoms: _328  and  _329
REMARK  121  A    between atoms: _328  and  _331
REMARK  122  A    between atoms: _331  and  _332
REMARK  123  A    between atoms: _335  and  _337
REMARK  124  A    between atoms: _337  and  _338
REMARK  125  A    between atoms: _337  and  _340
REMARK  126  A    between atoms: _340  and  _341
REMARK  127  A    between atoms: _345  and  ZN_438
REMARK  128  A    between atoms: _346  and  _348
REMARK  129  A    between atoms: _348  and  _349
REMARK  130  A    between atoms: _352  and  _354
REMARK  131  A    between atoms: _354  and  _355
REMARK  132  A    between atoms: _357  and  _359
REMARK  133  A    between atoms: _359  and  _360
REMARK  134  A    between atoms: _359  and  _362
REMARK  135  A    between atoms: _362  and  _363
REMARK  136  A    between atoms: _366  and  _368
REMARK  137  A    between atoms: _368  and  _369
REMARK  138  A    between atoms: _368  and  _371
REMARK  139  A    between atoms: _374  and  _376
REMARK  140  A    between atoms: _376  and  _377
REMARK  141  A    between atoms: _376  and  _379
REMARK  142  A    between atoms: _379  and  _380
REMARK  143  A    between atoms: _380  and  _381
REMARK  144  A    between atoms: _381  and  _382
REMARK  145  A    between atoms: _382  and  _383
REMARK  146  A    between atoms: _387  and  _389
REMARK  147  A    between atoms: _389  and  _390
REMARK  148  A    between atoms: _389  and  _392
REMARK  149  A    between atoms: _392  and  _393
REMARK  150  A    between atoms: _396  and  _398
REMARK  151  A    between atoms: _398  and  _399
REMARK  152  A    between atoms: _398  and  _401
REMARK  153  A    between atoms: _401  and  _402
REMARK  154  A    between atoms: _405  and  _407
REMARK  155  A    between atoms: _407  and  _408
REMARK  156  A    between atoms: _411  and  _413
REMARK  157  A    between atoms: _413  and  _414
REMARK  158  A    between atoms: _413  and  _416
REMARK  159  A    between atoms: _416  and  _417
REMARK  160  A    between atoms: _422  and  _424
REMARK  161  A    between atoms: _424  and  _425
REMARK  162  A    between atoms: _424  and  _427
REMARK  163  A    between atoms: _427  and  _428
REMARK                            x       y       z     vdW  Elec       q    Type
REMARK                         _______ _______ _______ _____ _____    ______ ____
ROOT
ATOM      1  CA  SER A   1      -4.782  20.642 -17.017  0.00  0.00    +0.163 C 
ENDROOT
BRANCH   1   2
ATOM      2  N   SER A   1      -5.173  19.560 -17.940  0.00  0.00    -0.237 NA
ATOM      3  H   SER A   1      -4.553  18.726 -17.988  0.00  0.00    +0.142 HD
ENDBRANCH   1   2
BRANCH   1   4
ATOM      4  CB  SER A   1      -3.284  20.483 -16.704  0.00  0.00    +0.227 C 
ATOM      5  OG  SER A   1      -2.663  19.485 -17.087  0.00  0.00    -0.287 OA
ENDBRANCH   1   4
BRANCH   1   6
ATOM      6  C   SER A   1      -5.588  20.623 -15.718  0.00  0.00    +0.162 C 
BRANCH   6   7
ATOM      7  O   SER A   1      -5.323  19.441 -14.986  0.00  0.00    -0.380 OA
ATOM      8  H   SER A   1      -5.853  19.446 -14.150  0.00  0.00    +0.211 HD
ENDBRANCH   6   7
ENDBRANCH   1   6
TORSDOF 4
REMARK  Name = ../refined-set-2016/5c5t/5c5t_pocket.pdb
REMARK  163 active torsions:
REMARK  status: ('A' for Active; 'I' for Inactive)
REMARK    1  A    between atoms: _1  and  _3
REMARK    2  A    between atoms: _3  and  _4
REMARK    3  A    between atoms: _3  and  _6
REMARK    4  A    between atoms: _6  and  _7
REMARK    5  A    between atoms: _7  and  _8
REMARK    6  A    between atoms: _8  and  _9
REMARK    7  A    between atoms: _18  and  _20
REMARK    8  A    between atoms: _20  and  _21
REMARK    9  A    between atoms: _20  and  _23
REMARK   10  A    between atoms: _23  and  _24
REMARK   11  A    between atoms: _26  and  _28
REMARK   12  A    between atoms: _28  and  _29
REMARK   13  A    between atoms: _28  and  _31
REMARK   14  A    between atoms: _31  and  _32
REMARK   15  A    between atoms: _32  and  _33
REMARK   16  A    between atoms: _38  and  _40
REMARK   17  A    between atoms: _40  and  _41
REMARK   18  A    between atoms: _40  and  _43
REMARK   19  A    between atoms: _43  and  _44
REMARK   20  A    between atoms: _44  and  _45
REMARK   21  A    between atoms: _50  and  _52
REMARK   22  A    between atoms: _52  and  _53
REMARK   23  A    between atoms: _56  and  _58
REMARK   24  A    between atoms: _58  and  _59
REMARK   25  A    between atoms: _58  and  _61
REMARK   26  A    between atoms: _61  and  _62
REMARK   27  A    between atoms: _62  and  _63
REMARK   28  A    between atoms: _63  and  _64
REMARK   29  A    between atoms: _73  and  _75
REMARK   30  A    between atoms: _75  and  _76
REMARK   31  A    between atoms: _75  and  _78
REMARK   32  A    between atoms: _78  and  _79
REMARK   33  A    between atoms: _84  and  _85
REMARK   34  A    between atoms: _87  and  _89
REMARK   35  A    between atoms: _89  and  _90
REMARK   36  A    between atoms: _89  and  _92
REMARK   37  A    between atoms: _92  and  _93
REMARK   38  A    between atoms: _93  and  _94
REMARK   39  A    between atoms: _99  and  _101
REMARK   40  A    between atoms: _101  and  _102
REMARK   41  A    between atoms: _101  and  _104
REMARK   42  A    between atoms: _104  and  _105
REMARK   43  A    between atoms: _110  and  _111
REMARK   44  A    between atoms: _113  and  _115
REMARK   45  A    between atoms: _115  and  _116
REMARK   46  A    between atoms: _115  and  _118
REMARK   47  A    between atoms: _118  and  _119
REMARK   48  A    between atoms: _124  and  _125
REMARK   49  A    between atoms: _127  and  _129
REMARK   50  A    between atoms: _129  and  _130
REMARK   51  A    between atoms: _129  and  _132
REMARK   52  A    between atoms: _132  and  _133
REMARK   53  A    between atoms: _138  and  _139
REMARK   54  A    between atoms: _141  and  _143
REMARK   55  A    between atoms: _143  and  _144
REMARK   56  A    between atoms: _143  and  _146
REMARK   57  A    between atoms: _146  and  _147
REMARK   58  A    between atoms: _152  and  _154
REMARK   59  A    between atoms: _165  and  _168
REMARK   60  A    between atoms: _168  and  _169
REMARK   61  A    between atoms: _174  and  _175
REMARK   62  A    between atoms: _179  and  _180
REMARK   63  A    between atoms: _186  and  _188
REMARK   64  A    between atoms: _188  and  _189
REMARK   65  A    between atoms: _188  and  _191
REMARK   66  A    between atoms: _191  and  _192
REMARK   67  A    between atoms: _192  and  _193
REMARK   68  A    between atoms: _193  and  _194
REMARK   69  A    between atoms: _203  and  _205
REMARK   70  A    between atoms: _205  and  _206
REMARK   71  A    between atoms: _205  and  _208
REMARK   72  A    between atoms: _208  and  _209
REMARK   73  A    between atoms: _212  and  _214
REMARK   74  A    between atoms: _214  and  _215
REMARK   75  A    between atoms: _214  and  _217
REMARK   76  A    between atoms: _217  and  _218
REMARK   77  A    between atoms: _218  and  _219
REMARK   78  A    between atoms: _221  and  _223
REMARK   79  A    between atoms: _223  and  _224
REMARK   80  A    between atoms: _223  and  _226
REMARK   81  A    between atoms: _226  and  _227
REMARK   82  A    between atoms: _232  and  _233
REMARK   83  A    between atoms: _235  and  _237
REMARK   84  A    between atoms: _237  and  _238
REMARK   85  A    between atoms: _240  and  _242
REMARK   86  A    between atoms: _242  and  _243
REMARK   87  A    between atoms: _242  and  _245
REMARK   88  A    between atoms: _245  and  _246
REMARK   89  A    between atoms: _246  and  _247
REMARK   90  A    between atoms: _250  and  _252
REMARK   91  A    between atoms: _252  and  _253
REMARK   92  A    between atoms: _252  and  _255
REMARK   93  A    between atoms: _255  and  _256
REMARK   94  A    between atoms: _259  and  _261
REMARK   95  A    between atoms: _261  and  _262
REMARK   96  A    between atoms: _261  and  _264
REMARK   97  A    between atoms: _264  and  _265
REMARK   98  A    between atoms: _268  and  _270
REMARK   99  A    between atoms: _270  and  _271
REMARK  100  A    between atoms: _270  and  _273
REMARK  101  A    between atoms: _273  and  _274
REMARK  102  A    between atoms: _280  and  _282
REMARK  103  A    between atoms: _282  and  _283
REMARK  104  A    between atoms: _282  and  _285
REMARK  105  A    between atoms: _285  and  _286
REMARK  106  A    between atoms: _290  and  _291
REMARK  107  A    between atoms: _296  and  _298
REMARK  108  A    between atoms: _298  and  _299
REMARK  109  A    between atoms: _298  and  _301
REMARK  110  A    between atoms: _301  and  _302
REMARK  111  A    between atoms: _305  and  _307
REMARK  112  A    between atoms: _307  and  _308
REMARK  113  A    between atoms: _307  and  _310
REMARK  114  A    between atoms: _310  and  _311
REMARK  115  A    between atoms: _317  and  _319
REMARK  116  A    between atoms: _319  and  _320
REMARK  117  A    between atoms: _319  and  _322
REMARK  118  A    between atoms: _322  and  _323
REMARK  119  A    between atoms: _326  and  _328
REMARK  120  A    between atoms: _328  and  _329
REMARK  121  A    between atoms: _328  and  _331
REMARK  122  A    between atoms: _331  and  _332
REMARK  123  A    between atoms: _335  and  _337
REMARK  124  A    between atoms: _337  and  _338
REMARK  125  A    between atoms: _337  and  _340
REMARK  126  A    between atoms: _340  and  _341
REMARK  127  A    between atoms: _345  and  ZN_438
REMARK  128  A    between atoms: _346  and  _348
REMARK  129  A    between atoms: _348  and  _349
REMARK  130  A    between atoms: _352  and  _354
REMARK  131  A    between atoms: _354  and  _355
REMARK  132  A    between atoms: _357  and  _359
REMARK  133  A    between atoms: _359  and  _360
REMARK  134  A    between atoms: _359  and  _362
REMARK  135  A    between atoms: _362  and  _363
REMARK  136  A    between atoms: _366  and  _368
REMARK  137  A    between atoms: _368  and  _369
REMARK  138  A    between atoms: _368  and  _371
REMARK  139  A    between atoms: _374  and  _376
REMARK  140  A    between atoms: _376  and  _377
REMARK  141  A    between atoms: _376  and  _379
REMARK  142  A    between atoms: _379  and  _380
REMARK  143  A    between atoms: _380  and  _381
REMARK  144  A    between atoms: _381  and  _382
REMARK  145  A    between atoms: _382  and  _383
REMARK  146  A    between atoms: _387  and  _389
REMARK  147  A    between atoms: _389  and  _390
REMARK  148  A    between atoms: _389  and  _392
REMARK  149  A    between atoms: _392  and  _393
REMARK  150  A    between atoms: _396  and  _398
REMARK  151  A    between atoms: _398  and  _399
REMARK  152  A    between atoms: _398  and  _401
REMARK  153  A    between atoms: _401  and  _402
REMARK  154  A    between atoms: _405  and  _407
REMARK  155  A    between atoms: _407  and  _408
REMARK  156  A    between atoms: _411  and  _413
REMARK  157  A    between atoms: _413  and  _414
REMARK  158  A    between atoms: _413  and  _416
REMARK  159  A    between atoms: _416  and  _417
REMARK  160  A    between atoms: _422  and  _424
REMARK  161  A    between atoms: _424  and  _425
REMARK  162  A    between atoms: _424  and  _427
REMARK  163  A    between atoms: _427  and  _428
REMARK                            x       y       z     vdW  Elec       q    Type
REMARK                         _______ _______ _______ _____ _____    ______ ____
ROOT
ATOM      1  CB  GLN A   1      -1.048  19.082 -11.606  0.00  0.00    +0.035 C 
ENDROOT
BRANCH   1   2
ATOM      2  CA  GLN A   1      -0.502  20.459 -11.959  0.00  0.00    +0.134 C 
BRANCH   2   3
ATOM      3  N   GLN A   1      -0.492  20.658 -13.410  0.00  0.00    -0.239 NA
ATOM      4  H   GLN A   1       0.280  20.242 -13.969  0.00  0.00    +0.142 HD
ENDBRANCH   2   3
BRANCH   2   5
ATOM      5  C   GLN A   1       0.858  20.595 -11.281  0.00  0.00    +0.224 C 
ATOM      6  O   GLN A   1       1.901  20.315 -11.866  0.00  0.00    -0.287 OA
ENDBRANCH   2   5
ENDBRANCH   1   2
BRANCH   1   7
ATOM      7  CG  GLN A   1      -2.416  18.773 -12.198  0.00  0.00    +0.087 C 
BRANCH   7   8
ATOM      8  CD  GLN A   1      -2.284  17.819 -13.344  0.00  0.00    +0.219 C 
ATOM      9  OE1 GLN A   1      -1.612  16.796 -13.224  0.00  0.00    -0.275 OA
ATOM     10  NE2 GLN A   1      -2.891  18.155 -14.473  0.00  0.00    -0.329 N 
ATOM     11 HE21 GLN A   1      -3.448  19.032 -14.523  0.00  0.00    +0.145 HD
ATOM     12 HE22 GLN A   1      -2.810  17.542 -15.309  0.00  0.00    +0.145 HD
ENDBRANCH   7   8
ENDBRANCH   1   7
TORSDOF 5
REMARK  Name = ../refined-set-2016/5c5t/5c5t_pocket.pdb
REMARK  163 active torsions:
REMARK  status: ('A' for Active; 'I' for Inactive)
REMARK    1  A    between atoms: _1  and  _3
REMARK    2  A    between atoms: _3  and  _4
REMARK    3  A    between atoms: _3  and  _6
REMARK    4  A    between atoms: _6  and  _7
REMARK    5  A    between atoms: _7  and  _8
REMARK    6  A    between atoms: _8  and  _9
REMARK    7  A    between atoms: _18  and  _20
REMARK    8  A    between atoms: _20  and  _21
REMARK    9  A    between atoms: _20  and  _23
REMARK   10  A    between atoms: _23  and  _24
REMARK   11  A    between atoms: _26  and  _28
REMARK   12  A    between atoms: _28  and  _29
REMARK   13  A    between atoms: _28  and  _31
REMARK   14  A    between atoms: _31  and  _32
REMARK   15  A    between atoms: _32  and  _33
REMARK   16  A    between atoms: _38  and  _40
REMARK   17  A    between atoms: _40  and  _41
REMARK   18  A    between atoms: _40  and  _43
REMARK   19  A    between atoms: _43  and  _44
REMARK   20  A    between atoms: _44  and  _45
REMARK   21  A    between atoms: _50  and  _52
REMARK   22  A    between atoms: _52  and  _53
REMARK   23  A    between atoms: _56  and  _58
REMARK   24  A    between atoms: _58  and  _59
REMARK   25  A    between atoms: _58  and  _61
REMARK   26  A    between atoms: _61  and  _62
REMARK   27  A    between atoms: _62  and  _63
REMARK   28  A    between atoms: _63  and  _64
REMARK   29  A    between atoms: _73  and  _75
REMARK   30  A    between atoms: _75  and  _76
REMARK   31  A    between atoms: _75  and  _78
REMARK   32  A    between atoms: _78  and  _79
REMARK   33  A    between atoms: _84  and  _85
REMARK   34  A    between atoms: _87  and  _89
REMARK   35  A    between atoms: _89  and  _90
REMARK   36  A    between atoms: _89  and  _92
REMARK   37  A    between atoms: _92  and  _93
REMARK   38  A    between atoms: _93  and  _94
REMARK   39  A    between atoms: _99  and  _101
REMARK   40  A    between atoms: _101  and  _102
REMARK   41  A    between atoms: _101  and  _104
REMARK   42  A    between atoms: _104  and  _105
REMARK   43  A    between atoms: _110  and  _111
REMARK   44  A    between atoms: _113  and  _115
REMARK   45  A    between atoms: _115  and  _116
REMARK   46  A    between atoms: _115  and  _118
REMARK   47  A    between atoms: _118  and  _119
REMARK   48  A    between atoms: _124  and  _125
REMARK   49  A    between atoms: _127  and  _129
REMARK   50  A    between atoms: _129  and  _130
REMARK   51  A    between atoms: _129  and  _132
REMARK   52  A    between atoms: _132  and  _133
REMARK   53  A    between atoms: _138  and  _139
REMARK   54  A    between atoms: _141  and  _143
REMARK   55  A    between atoms: _143  and  _144
REMARK   56  A    between atoms: _143  and  _146
REMARK   57  A    between atoms: _146  and  _147
REMARK   58  A    between atoms: _152  and  _154
REMARK   59  A    between atoms: _165  and  _168
REMARK   60  A    between atoms: _168  and  _169
REMARK   61  A    between atoms: _174  and  _175
REMARK   62  A    between atoms: _179  and  _180
REMARK   63  A    between atoms: _186  and  _188
REMARK   64  A    between atoms: _188  and  _189
REMARK   65  A    between atoms: _188  and  _191
REMARK   66  A    between atoms: _191  and  _192
REMARK   67  A    between atoms: _192  and  _193
REMARK   68  A    between atoms: _193  and  _194
REMARK   69  A    between atoms: _203  and  _205
REMARK   70  A    between atoms: _205  and  _206
REMARK   71  A    between atoms: _205  and  _208
REMARK   72  A    between atoms: _208  and  _209
REMARK   73  A    between atoms: _212  and  _214
REMARK   74  A    between atoms: _214  and  _215
REMARK   75  A    between atoms: _214  and  _217
REMARK   76  A    between atoms: _217  and  _218
REMARK   77  A    between atoms: _218  and  _219
REMARK   78  A    between atoms: _221  and  _223
REMARK   79  A    between atoms: _223  and  _224
REMARK   80  A    between atoms: _223  and  _226
REMARK   81  A    between atoms: _226  and  _227
REMARK   82  A    between atoms: _232  and  _233
REMARK   83  A    between atoms: _235  and  _237
REMARK   84  A    between atoms: _237  and  _238
REMARK   85  A    between atoms: _240  and  _242
REMARK   86  A    between atoms: _242  and  _243
REMARK   87  A    between atoms: _242  and  _245
REMARK   88  A    between atoms: _245  and  _246
REMARK   89  A    between atoms: _246  and  _247
REMARK   90  A    between atoms: _250  and  _252
REMARK   91  A    between atoms: _252  and  _253
REMARK   92  A    between atoms: _252  and  _255
REMARK   93  A    between atoms: _255  and  _256
REMARK   94  A    between atoms: _259  and  _261
REMARK   95  A    between atoms: _261  and  _262
REMARK   96  A    between atoms: _261  and  _264
REMARK   97  A    between atoms: _264  and  _265
REMARK   98  A    between atoms: _268  and  _270
REMARK   99  A    between atoms: _270  and  _271
REMARK  100  A    between atoms: _270  and  _273
REMARK  101  A    between atoms: _273  and  _274
REMARK  102  A    between atoms: _280  and  _282
REMARK  103  A    between atoms: _282  and  _283
REMARK  104  A    between atoms: _282  and  _285
REMARK  105  A    between atoms: _285  and  _286
REMARK  106  A    between atoms: _290  and  _291
REMARK  107  A    between atoms: _296  and  _298
REMARK  108  A    between atoms: _298  and  _299
REMARK  109  A    between atoms: _298  and  _301
REMARK  110  A    between atoms: _301  and  _302
REMARK  111  A    between atoms: _305  and  _307
REMARK  112  A    between atoms: _307  and  _308
REMARK  113  A    between atoms: _307  and  _310
REMARK  114  A    between atoms: _310  and  _311
REMARK  115  A    between atoms: _317  and  _319
REMARK  116  A    between atoms: _319  and  _320
REMARK  117  A    between atoms: _319  and  _322
REMARK  118  A    between atoms: _322  and  _323
REMARK  119  A    between atoms: _326  and  _328
REMARK  120  A    between atoms: _328  and  _329
REMARK  121  A    between atoms: _328  and  _331
REMARK  122  A    between atoms: _331  and  _332
REMARK  123  A    between atoms: _335  and  _337
REMARK  124  A    between atoms: _337  and  _338
REMARK  125  A    between atoms: _337  and  _340
REMARK  126  A    between atoms: _340  and  _341
REMARK  127  A    between atoms: _345  and  ZN_438
REMARK  128  A    between atoms: _346  and  _348
REMARK  129  A    between atoms: _348  and  _349
REMARK  130  A    between atoms: _352  and  _354
REMARK  131  A    between atoms: _354  and  _355
REMARK  132  A    between atoms: _357  and  _359
REMARK  133  A    between atoms: _359  and  _360
REMARK  134  A    between atoms: _359  and  _362
REMARK  135  A    between atoms: _362  and  _363
REMARK  136  A    between atoms: _366  and  _368
REMARK  137  A    between atoms: _368  and  _369
REMARK  138  A    between atoms: _368  and  _371
REMARK  139  A    between atoms: _374  and  _376
REMARK  140  A    between atoms: _376  and  _377
REMARK  141  A    between atoms: _376  and  _379
REMARK  142  A    between atoms: _379  and  _380
REMARK  143  A    between atoms: _380  and  _381
REMARK  144  A    between atoms: _381  and  _382
REMARK  145  A    between atoms: _382  and  _383
REMARK  146  A    between atoms: _387  and  _389
REMARK  147  A    between atoms: _389  and  _390
REMARK  148  A    between atoms: _389  and  _392
REMARK  149  A    between atoms: _392  and  _393
REMARK  150  A    between atoms: _396  and  _398
REMARK  151  A    between atoms: _398  and  _399
REMARK  152  A    between atoms: _398  and  _401
REMARK  153  A    between atoms: _401  and  _402
REMARK  154  A    between atoms: _405  and  _407
REMARK  155  A    between atoms: _407  and  _408
REMARK  156  A    between atoms: _411  and  _413
REMARK  157  A    between atoms: _413  and  _414
REMARK  158  A    between atoms: _413  and  _416
REMARK  159  A    between atoms: _416  and  _417
REMARK  160  A    between atoms: _422  and  _424
REMARK  161  A    between atoms: _424  and  _425
REMARK  162  A    between atoms: _424  and  _427
REMARK  163  A    between atoms: _427  and  _428
REMARK                            x       y       z     vdW  Elec       q    Type
REMARK                         _______ _______ _______ _____ _____    ______ ____
ROOT
ATOM      1  CB  GLN A   1      -2.757  18.565  -6.301  0.00  0.00    +0.035 C 
ENDROOT
BRANCH   1   2
ATOM      2  CA  GLN A   1      -2.118  19.663  -5.479  0.00  0.00    +0.134 C 
BRANCH   2   3
ATOM      3  N   GLN A   1      -2.330  19.440  -4.061  0.00  0.00    -0.239 NA
ATOM      4  H   GLN A   1      -3.289  19.187  -3.749  0.00  0.00    +0.142 HD
ENDBRANCH   2   3
BRANCH   2   5
ATOM      5  C   GLN A   1      -2.727  21.002  -5.870  0.00  0.00    +0.224 C 
ATOM      6  O   GLN A   1      -3.861  21.330  -5.461  0.00  0.00    -0.287 OA
ENDBRANCH   2   5
ENDBRANCH   1   2
BRANCH   1   7
ATOM      7  CG  GLN A   1      -2.573  18.662  -7.802  0.00  0.00    +0.087 C 
BRANCH   7   8
ATOM      8  CD  GLN A   1      -3.624  17.854  -8.531  0.00  0.00    +0.219 C 
ATOM      9  OE1 GLN A   1      -4.764  18.289  -8.669  0.00  0.00    -0.275 OA
ATOM     10  NE2 GLN A   1      -3.243  16.685  -9.014  0.00  0.00    -0.329 N 
ATOM     11 HE21 GLN A   1      -2.266  16.357  -8.872  0.00  0.00    +0.145 HD
ATOM     12 HE22 GLN A   1      -3.920  16.092  -9.536  0.00  0.00    +0.145 HD
ENDBRANCH   7   8
ENDBRANCH   1   7
TORSDOF 5
REMARK  Name = ../refined-set-2016/5c5t/5c5t_pocket.pdb
REMARK  163 active torsions:
REMARK  status: ('A' for Active; 'I' for Inactive)
REMARK    1  A    between atoms: _1  and  _3
REMARK    2  A    between atoms: _3  and  _4
REMARK    3  A    between atoms: _3  and  _6
REMARK    4  A    between atoms: _6  and  _7
REMARK    5  A    between atoms: _7  and  _8
REMARK    6  A    between atoms: _8  and  _9
REMARK    7  A    between atoms: _18  and  _20
REMARK    8  A    between atoms: _20  and  _21
REMARK    9  A    between atoms: _20  and  _23
REMARK   10  A    between atoms: _23  and  _24
REMARK   11  A    between atoms: _26  and  _28
REMARK   12  A    between atoms: _28  and  _29
REMARK   13  A    between atoms: _28  and  _31
REMARK   14  A    between atoms: _31  and  _32
REMARK   15  A    between atoms: _32  and  _33
REMARK   16  A    between atoms: _38  and  _40
REMARK   17  A    between atoms: _40  and  _41
REMARK   18  A    between atoms: _40  and  _43
REMARK   19  A    between atoms: _43  and  _44
REMARK   20  A    between atoms: _44  and  _45
REMARK   21  A    between atoms: _50  and  _52
REMARK   22  A    between atoms: _52  and  _53
REMARK   23  A    between atoms: _56  and  _58
REMARK   24  A    between atoms: _58  and  _59
REMARK   25  A    between atoms: _58  and  _61
REMARK   26  A    between atoms: _61  and  _62
REMARK   27  A    between atoms: _62  and  _63
REMARK   28  A    between atoms: _63  and  _64
REMARK   29  A    between atoms: _73  and  _75
REMARK   30  A    between atoms: _75  and  _76
REMARK   31  A    between atoms: _75  and  _78
REMARK   32  A    between atoms: _78  and  _79
REMARK   33  A    between atoms: _84  and  _85
REMARK   34  A    between atoms: _87  and  _89
REMARK   35  A    between atoms: _89  and  _90
REMARK   36  A    between atoms: _89  and  _92
REMARK   37  A    between atoms: _92  and  _93
REMARK   38  A    between atoms: _93  and  _94
REMARK   39  A    between atoms: _99  and  _101
REMARK   40  A    between atoms: _101  and  _102
REMARK   41  A    between atoms: _101  and  _104
REMARK   42  A    between atoms: _104  and  _105
REMARK   43  A    between atoms: _110  and  _111
REMARK   44  A    between atoms: _113  and  _115
REMARK   45  A    between atoms: _115  and  _116
REMARK   46  A    between atoms: _115  and  _118
REMARK   47  A    between atoms: _118  and  _119
REMARK   48  A    between atoms: _124  and  _125
REMARK   49  A    between atoms: _127  and  _129
REMARK   50  A    between atoms: _129  and  _130
REMARK   51  A    between atoms: _129  and  _132
REMARK   52  A    between atoms: _132  and  _133
REMARK   53  A    between atoms: _138  and  _139
REMARK   54  A    between atoms: _141  and  _143
REMARK   55  A    between atoms: _143  and  _144
REMARK   56  A    between atoms: _143  and  _146
REMARK   57  A    between atoms: _146  and  _147
REMARK   58  A    between atoms: _152  and  _154
REMARK   59  A    between atoms: _165  and  _168
REMARK   60  A    between atoms: _168  and  _169
REMARK   61  A    between atoms: _174  and  _175
REMARK   62  A    between atoms: _179  and  _180
REMARK   63  A    between atoms: _186  and  _188
REMARK   64  A    between atoms: _188  and  _189
REMARK   65  A    between atoms: _188  and  _191
REMARK   66  A    between atoms: _191  and  _192
REMARK   67  A    between atoms: _192  and  _193
REMARK   68  A    between atoms: _193  and  _194
REMARK   69  A    between atoms: _203  and  _205
REMARK   70  A    between atoms: _205  and  _206
REMARK   71  A    between atoms: _205  and  _208
REMARK   72  A    between atoms: _208  and  _209
REMARK   73  A    between atoms: _212  and  _214
REMARK   74  A    between atoms: _214  and  _215
REMARK   75  A    between atoms: _214  and  _217
REMARK   76  A    between atoms: _217  and  _218
REMARK   77  A    between atoms: _218  and  _219
REMARK   78  A    between atoms: _221  and  _223
REMARK   79  A    between atoms: _223  and  _224
REMARK   80  A    between atoms: _223  and  _226
REMARK   81  A    between atoms: _226  and  _227
REMARK   82  A    between atoms: _232  and  _233
REMARK   83  A    between atoms: _235  and  _237
REMARK   84  A    between atoms: _237  and  _238
REMARK   85  A    between atoms: _240  and  _242
REMARK   86  A    between atoms: _242  and  _243
REMARK   87  A    between atoms: _242  and  _245
REMARK   88  A    between atoms: _245  and  _246
REMARK   89  A    between atoms: _246  and  _247
REMARK   90  A    between atoms: _250  and  _252
REMARK   91  A    between atoms: _252  and  _253
REMARK   92  A    between atoms: _252  and  _255
REMARK   93  A    between atoms: _255  and  _256
REMARK   94  A    between atoms: _259  and  _261
REMARK   95  A    between atoms: _261  and  _262
REMARK   96  A    between atoms: _261  and  _264
REMARK   97  A    between atoms: _264  and  _265
REMARK   98  A    between atoms: _268  and  _270
REMARK   99  A    between atoms: _270  and  _271
REMARK  100  A    between atoms: _270  and  _273
REMARK  101  A    between atoms: _273  and  _274
REMARK  102  A    between atoms: _280  and  _282
REMARK  103  A    between atoms: _282  and  _283
REMARK  104  A    between atoms: _282  and  _285
REMARK  105  A    between atoms: _285  and  _286
REMARK  106  A    between atoms: _290  and  _291
REMARK  107  A    between atoms: _296  and  _298
REMARK  108  A    between atoms: _298  and  _299
REMARK  109  A    between atoms: _298  and  _301
REMARK  110  A    between atoms: _301  and  _302
REMARK  111  A    between atoms: _305  and  _307
REMARK  112  A    between atoms: _307  and  _308
REMARK  113  A    between atoms: _307  and  _310
REMARK  114  A    between atoms: _310  and  _311
REMARK  115  A    between atoms: _317  and  _319
REMARK  116  A    between atoms: _319  and  _320
REMARK  117  A    between atoms: _319  and  _322
REMARK  118  A    between atoms: _322  and  _323
REMARK  119  A    between atoms: _326  and  _328
REMARK  120  A    between atoms: _328  and  _329
REMARK  121  A    between atoms: _328  and  _331
REMARK  122  A    between atoms: _331  and  _332
REMARK  123  A    between atoms: _335  and  _337
REMARK  124  A    between atoms: _337  and  _338
REMARK  125  A    between atoms: _337  and  _340
REMARK  126  A    between atoms: _340  and  _341
REMARK  127  A    between atoms: _345  and  ZN_438
REMARK  128  A    between atoms: _346  and  _348
REMARK  129  A    between atoms: _348  and  _349
REMARK  130  A    between atoms: _352  and  _354
REMARK  131  A    between atoms: _354  and  _355
REMARK  132  A    between atoms: _357  and  _359
REMARK  133  A    between atoms: _359  and  _360
REMARK  134  A    between atoms: _359  and  _362
REMARK  135  A    between atoms: _362  and  _363
REMARK  136  A    between atoms: _366  and  _368
REMARK  137  A    between atoms: _368  and  _369
REMARK  138  A    between atoms: _368  and  _371
REMARK  139  A    between atoms: _374  and  _376
REMARK  140  A    between atoms: _376  and  _377
REMARK  141  A    between atoms: _376  and  _379
REMARK  142  A    between atoms: _379  and  _380
REMARK  143  A    between atoms: _380  and  _381
REMARK  144  A    between atoms: _381  and  _382
REMARK  145  A    between atoms: _382  and  _383
REMARK  146  A    between atoms: _387  and  _389
REMARK  147  A    between atoms: _389  and  _390
REMARK  148  A    between atoms: _389  and  _392
REMARK  149  A    between atoms: _392  and  _393
REMARK  150  A    between atoms: _396  and  _398
REMARK  151  A    between atoms: _398  and  _399
REMARK  152  A    between atoms: _398  and  _401
REMARK  153  A    between atoms: _401  and  _402
REMARK  154  A    between atoms: _405  and  _407
REMARK  155  A    between atoms: _407  and  _408
REMARK  156  A    between atoms: _411  and  _413
REMARK  157  A    between atoms: _413  and  _414
REMARK  158  A    between atoms: _413  and  _416
REMARK  159  A    between atoms: _416  and  _417
REMARK  160  A    between atoms: _422  and  _424
REMARK  161  A    between atoms: _424  and  _425
REMARK  162  A    between atoms: _424  and  _427
REMARK  163  A    between atoms: _427  and  _428
REMARK                            x       y       z     vdW  Elec       q    Type
REMARK                         _______ _______ _______ _____ _____    ______ ____
ROOT
ATOM      1  CA  ARG A   2      -4.599  25.177 -13.633  0.00  0.00    +0.149 C 
ENDROOT
BRANCH   1   4
ATOM      2  C   ALA A   1      -4.535  23.925 -11.525  0.00  0.00    +0.238 C 
ATOM      3  O   ALA A   1      -5.285  24.701 -10.938  0.00  0.00    -0.274 OA
ATOM      4  N   ARG A   2      -4.205  24.033 -12.810  0.00  0.00    -0.297 N 
ATOM      5  H   ARG A   2      -3.644  23.274 -13.247  0.00  0.00    +0.150 HD
BRANCH   2   6
ATOM      6  CA  ALA A   1      -3.998  22.698 -10.819  0.00  0.00    +0.145 C 
ATOM      7  CB  ALA A   1      -4.999  21.516 -11.045  0.00  0.00    +0.028 C 
BRANCH   6   8
ATOM      8  N   ALA A   1      -3.812  22.944  -9.415  0.00  0.00    -0.238 NA
ATOM      9  H   ALA A   1      -4.609  23.315  -8.859  0.00  0.00    +0.142 HD
ENDBRANCH   6   8
ENDBRANCH   2   6
ENDBRANCH   1   4
BRANCH   1  10
ATOM     10  C   ARG A   2      -5.196  24.728 -14.951  0.00  0.00    +0.241 C 
ATOM     11  N   TYR A   3      -6.257  25.434 -15.338  0.00  0.00    -0.298 N 
ATOM     12  H   TYR A   3      -6.614  26.160 -14.684  0.00  0.00    +0.150 HD
ATOM     13  O   ARG A   2      -4.717  23.781 -15.581  0.00  0.00    -0.273 OA
BRANCH  11  14
ATOM     14  CA  TYR A   3      -6.951  25.272 -16.593  0.00  0.00    +0.141 C 
BRANCH  14  15
ATOM     15  C   TYR A   3      -6.878  26.558 -17.433  0.00  0.00    +0.227 C 
ATOM     16  O   TYR A   3      -7.335  27.625 -16.988  0.00  0.00    -0.286 OA
ENDBRANCH  14  15
BRANCH  14  17
ATOM     17  CB  TYR A   3      -8.421  24.965 -16.373  0.00  0.00    +0.054 C 
BRANCH  17  18
ATOM     18  CG  TYR A   3      -8.758  23.770 -15.546  0.00  0.00    -0.020 A 
ATOM     19  CD2 TYR A   3      -8.899  23.889 -14.174  0.00  0.00    -0.001 A 
ATOM     20  CE2 TYR A   3      -9.256  22.799 -13.392  0.00  0.00    +0.036 A 
ATOM     21  CZ  TYR A   3      -9.440  21.578 -13.984  0.00  0.00    +0.134 A 
ATOM     22  CE1 TYR A   3      -9.291  21.429 -15.331  0.00  0.00    +0.036 A 
ATOM     23  CD1 TYR A   3      -8.948  22.536 -16.108  0.00  0.00    -0.001 A 
BRANCH  21  24
ATOM     24  OH  TYR A   3      -9.781  20.504 -13.216  0.00  0.00    -0.506 OA
ATOM     25  HH  TYR A   3     -10.640  20.686 -12.759  0.00  0.00    +0.292 HD
ENDBRANCH  21  24
ENDBRANCH  17  18
ENDBRANCH  14  17
ENDBRANCH  11  14
ENDBRANCH   1  10
BRANCH   1  26
ATOM     26  CB  ARG A   2      -3.393  26.085 -13.913  0.00  0.00    +0.033 C 
BRANCH  26  27
ATOM     27  CG  ARG A   2      -3.705  27.268 -14.886  0.00  0.00    +0.045 C 
BRANCH  27  28
ATOM     28  CD  ARG A   2      -2.613  28.341 -14.768  0.00  0.00    +0.174 C 
BRANCH  28  29
ATOM     29  NE  ARG A   2      -2.869  29.533 -15.594  0.00  0.00    -0.265 N 
ATOM     30  HE  ARG A   2      -3.401  30.322 -15.175  0.00  0.00    +0.259 HD
ATOM     31  CZ  ARG A   2      -2.452  29.647 -16.848  0.00  0.00    +0.342 C 
ATOM     32  NH2 ARG A   2      -1.813  28.638 -17.430  0.00  0.00    -0.292 N 
ATOM     33 HH21 ARG A   2      -1.640  27.759 -16.902  0.00  0.00    +0.255 HD
ATOM     34 HH22 ARG A   2      -1.486  28.727 -18.413  0.00  0.00    +0.255 HD
ATOM     35  NH1 ARG A   2      -2.698  30.761 -17.531  0.00  0.00    -0.292 N 
ATOM     36 HH11 ARG A   2      -3.217  31.542 -17.082  0.00  0.00    +0.255 HD
ATOM     37 HH12 ARG A   2      -2.371  30.851 -18.514  0.00  0.00    +0.255 HD
ENDBRANCH  28  29
ENDBRANCH  27  28
ENDBRANCH  26  27
ENDBRANCH   1  26
TORSDOF 13
REMARK  Name = ../refined-set-2016/5c5t/5c5t_pocket.pdb
REMARK  163 active torsions:
REMARK  status: ('A' for Active; 'I' for Inactive)
REMARK    1  A    between atoms: _1  and  _3
REMARK    2  A    between atoms: _3  and  _4
REMARK    3  A    between atoms: _3  and  _6
REMARK    4  A    between atoms: _6  and  _7
REMARK    5  A    between atoms: _7  and  _8
REMARK    6  A    between atoms: _8  and  _9
REMARK    7  A    between atoms: _18  and  _20
REMARK    8  A    between atoms: _20  and  _21
REMARK    9  A    between atoms: _20  and  _23
REMARK   10  A    between atoms: _23  and  _24
REMARK   11  A    between atoms: _26  and  _28
REMARK   12  A    between atoms: _28  and  _29
REMARK   13  A    between atoms: _28  and  _31
REMARK   14  A    between atoms: _31  and  _32
REMARK   15  A    between atoms: _32  and  _33
REMARK   16  A    between atoms: _38  and  _40
REMARK   17  A    between atoms: _40  and  _41
REMARK   18  A    between atoms: _40  and  _43
REMARK   19  A    between atoms: _43  and  _44
REMARK   20  A    between atoms: _44  and  _45
REMARK   21  A    between atoms: _50  and  _52
REMARK   22  A    between atoms: _52  and  _53
REMARK   23  A    between atoms: _56  and  _58
REMARK   24  A    between atoms: _58  and  _59
REMARK   25  A    between atoms: _58  and  _61
REMARK   26  A    between atoms: _61  and  _62
REMARK   27  A    between atoms: _62  and  _63
REMARK   28  A    between atoms: _63  and  _64
REMARK   29  A    between atoms: _73  and  _75
REMARK   30  A    between atoms: _75  and  _76
REMARK   31  A    between atoms: _75  and  _78
REMARK   32  A    between atoms: _78  and  _79
REMARK   33  A    between atoms: _84  and  _85
REMARK   34  A    between atoms: _87  and  _89
REMARK   35  A    between atoms: _89  and  _90
REMARK   36  A    between atoms: _89  and  _92
REMARK   37  A    between atoms: _92  and  _93
REMARK   38  A    between atoms: _93  and  _94
REMARK   39  A    between atoms: _99  and  _101
REMARK   40  A    between atoms: _101  and  _102
REMARK   41  A    between atoms: _101  and  _104
REMARK   42  A    between atoms: _104  and  _105
REMARK   43  A    between atoms: _110  and  _111
REMARK   44  A    between atoms: _113  and  _115
REMARK   45  A    between atoms: _115  and  _116
REMARK   46  A    between atoms: _115  and  _118
REMARK   47  A    between atoms: _118  and  _119
REMARK   48  A    between atoms: _124  and  _125
REMARK   49  A    between atoms: _127  and  _129
REMARK   50  A    between atoms: _129  and  _130
REMARK   51  A    between atoms: _129  and  _132
REMARK   52  A    between atoms: _132  and  _133
REMARK   53  A    between atoms: _138  and  _139
REMARK   54  A    between atoms: _141  and  _143
REMARK   55  A    between atoms: _143  and  _144
REMARK   56  A    between atoms: _143  and  _146
REMARK   57  A    between atoms: _146  and  _147
REMARK   58  A    between atoms: _152  and  _154
REMARK   59  A    between atoms: _165  and  _168
REMARK   60  A    between atoms: _168  and  _169
REMARK   61  A    between atoms: _174  and  _175
REMARK   62  A    between atoms: _179  and  _180
REMARK   63  A    between atoms: _186  and  _188
REMARK   64  A    between atoms: _188  and  _189
REMARK   65  A    between atoms: _188  and  _191
REMARK   66  A    between atoms: _191  and  _192
REMARK   67  A    between atoms: _192  and  _193
REMARK   68  A    between atoms: _193  and  _194
REMARK   69  A    between atoms: _203  and  _205
REMARK   70  A    between atoms: _205  and  _206
REMARK   71  A    between atoms: _205  and  _208
REMARK   72  A    between atoms: _208  and  _209
REMARK   73  A    between atoms: _212  and  _214
REMARK   74  A    between atoms: _214  and  _215
REMARK   75  A    between atoms: _214  and  _217
REMARK   76  A    between atoms: _217  and  _218
REMARK   77  A    between atoms: _218  and  _219
REMARK   78  A    between atoms: _221  and  _223
REMARK   79  A    between atoms: _223  and  _224
REMARK   80  A    between atoms: _223  and  _226
REMARK   81  A    between atoms: _226  and  _227
REMARK   82  A    between atoms: _232  and  _233
REMARK   83  A    between atoms: _235  and  _237
REMARK   84  A    between atoms: _237  and  _238
REMARK   85  A    between atoms: _240  and  _242
REMARK   86  A    between atoms: _242  and  _243
REMARK   87  A    between atoms: _242  and  _245
REMARK   88  A    between atoms: _245  and  _246
REMARK   89  A    between atoms: _246  and  _247
REMARK   90  A    between atoms: _250  and  _252
REMARK   91  A    between atoms: _252  and  _253
REMARK   92  A    between atoms: _252  and  _255
REMARK   93  A    between atoms: _255  and  _256
REMARK   94  A    between atoms: _259  and  _261
REMARK   95  A    between atoms: _261  and  _262
REMARK   96  A    between atoms: _261  and  _264
REMARK   97  A    between atoms: _264  and  _265
REMARK   98  A    between atoms: _268  and  _270
REMARK   99  A    between atoms: _270  and  _271
REMARK  100  A    between atoms: _270  and  _273
REMARK  101  A    between atoms: _273  and  _274
REMARK  102  A    between atoms: _280  and  _282
REMARK  103  A    between atoms: _282  and  _283
REMARK  104  A    between atoms: _282  and  _285
REMARK  105  A    between atoms: _285  and  _286
REMARK  106  A    between atoms: _290  and  _291
REMARK  107  A    between atoms: _296  and  _298
REMARK  108  A    between atoms: _298  and  _299
REMARK  109  A    between atoms: _298  and  _301
REMARK  110  A    between atoms: _301  and  _302
REMARK  111  A    between atoms: _305  and  _307
REMARK  112  A    between atoms: _307  and  _308
REMARK  113  A    between atoms: _307  and  _310
REMARK  114  A    between atoms: _310  and  _311
REMARK  115  A    between atoms: _317  and  _319
REMARK  116  A    between atoms: _319  and  _320
REMARK  117  A    between atoms: _319  and  _322
REMARK  118  A    between atoms: _322  and  _323
REMARK  119  A    between atoms: _326  and  _328
REMARK  120  A    between atoms: _328  and  _329
REMARK  121  A    between atoms: _328  and  _331
REMARK  122  A    between atoms: _331  and  _332
REMARK  123  A    between atoms: _335  and  _337
REMARK  124  A    between atoms: _337  and  _338
REMARK  125  A    between atoms: _337  and  _340
REMARK  126  A    between atoms: _340  and  _341
REMARK  127  A    between atoms: _345  and  ZN_438
REMARK  128  A    between atoms: _346  and  _348
REMARK  129  A    between atoms: _348  and  _349
REMARK  130  A    between atoms: _352  and  _354
REMARK  131  A    between atoms: _354  and  _355
REMARK  132  A    between atoms: _357  and  _359
REMARK  133  A    between atoms: _359  and  _360
REMARK  134  A    between atoms: _359  and  _362
REMARK  135  A    between atoms: _362  and  _363
REMARK  136  A    between atoms: _366  and  _368
REMARK  137  A    between atoms: _368  and  _369
REMARK  138  A    between atoms: _368  and  _371
REMARK  139  A    between atoms: _374  and  _376
REMARK  140  A    between atoms: _376  and  _377
REMARK  141  A    between atoms: _376  and  _379
REMARK  142  A    between atoms: _379  and  _380
REMARK  143  A    between atoms: _380  and  _381
REMARK  144  A    between atoms: _381  and  _382
REMARK  145  A    between atoms: _382  and  _383
REMARK  146  A    between atoms: _387  and  _389
REMARK  147  A    between atoms: _389  and  _390
REMARK  148  A    between atoms: _389  and  _392
REMARK  149  A    between atoms: _392  and  _393
REMARK  150  A    between atoms: _396  and  _398
REMARK  151  A    between atoms: _398  and  _399
REMARK  152  A    between atoms: _398  and  _401
REMARK  153  A    between atoms: _401  and  _402
REMARK  154  A    between atoms: _405  and  _407
REMARK  155  A    between atoms: _407  and  _408
REMARK  156  A    between atoms: _411  and  _413
REMARK  157  A    between atoms: _413  and  _414
REMARK  158  A    between atoms: _413  and  _416
REMARK  159  A    between atoms: _416  and  _417
REMARK  160  A    between atoms: _422  and  _424
REMARK  161  A    between atoms: _424  and  _425
REMARK  162  A    between atoms: _424  and  _427
REMARK  163  A    between atoms: _427  and  _428
REMARK                            x       y       z     vdW  Elec       q    Type
REMARK                         _______ _______ _______ _____ _____    ______ ____
ROOT
ATOM      1  C   UNK A   6     -14.750  10.862 -12.815  0.00  0.00    +0.000 C 
ATOM      2  C   UNK A   6     -15.141  10.821 -11.334  0.00  0.00    +0.000 C 
ATOM      3  N   TYR A   7     -14.663   9.784 -10.655  0.00  0.00    +0.000 N 
ATOM      4  CA  TYR A   7     -14.627   9.755  -9.177  0.00  0.00    +0.000 C 
ATOM      5  C   TYR A   7     -13.199   9.999  -8.669  0.00  0.00    +0.000 C 
ATOM      6  N   UNK A   8     -13.064  10.533  -7.469  0.00  0.00    +0.000 N 
ATOM      7  H   UNK A   8     -13.908  10.753  -6.903  0.00  0.00    +0.000 HD
ATOM      8  C   UNK A   8     -11.722  10.819  -6.928  0.00  0.00    +0.000 C 
ATOM      9  C   UNK A   8     -11.765  12.038  -5.990  0.00  0.00    +0.000 C 
ATOM     10  C   UNK A   8     -11.750  13.381  -6.738  0.00  0.00    +0.000 C 
ATOM     11  O   UNK A   8     -11.817  14.444  -6.055  0.00  0.00    +0.000 OA
ATOM     12  O   UNK A   8     -11.645  13.390  -7.988  0.00  0.00    +0.000 OA
ATOM     13 ZN   UNK A   8     -11.980  14.990  -9.169  0.00  0.00    +0.000 Zn
ATOM     14  N   UNK A   6     -12.121  13.967 -10.994  0.00  0.00    +0.000 N 
ATOM     15  C   UNK A   6     -12.244  12.608 -11.141  0.00  0.00    +0.000 A 
ATOM     16  C   UNK A   6     -12.814  12.383 -12.336  0.00  0.00    +0.000 A 
ATOM     17  N   UNK A   6     -12.978  13.620 -12.928  0.00  0.00    +0.000 NA
ATOM     18  C   UNK A   6     -12.568  14.554 -12.092  0.00  0.00    +0.000 A 
ATOM     19  O   TYR A   7     -12.237   9.660  -9.335  0.00  0.00    +0.000 OA
ATOM     20  H   TYR A   7     -14.301   8.963 -11.182  0.00  0.00    +0.000 HD
ATOM     21  O   UNK A   6     -15.842  11.709 -10.813  0.00  0.00    +0.000 OA
ATOM     22  C   UNK A   6     -13.245  11.102 -12.959  0.00  0.00    +0.000 C 
ENDROOT
BRANCH  13  23
ATOM     23  N   UNK A   8     -14.019  15.072  -8.665  0.00  0.00    +0.000 N 
ATOM     24  C   UNK A   8     -14.672  14.027  -8.187  0.00  0.00    +0.000 A 
ATOM     25  N   UNK A   8     -15.959  14.181  -8.461  0.00  0.00    +0.000 NA
ATOM     26  C   UNK A   8     -16.150  15.406  -9.068  0.00  0.00    +0.000 A 
ATOM     27  C   UNK A   8     -14.922  15.955  -9.200  0.00  0.00    +0.000 A 
BRANCH  26  28
ATOM     28  C   UNK A   8     -17.495  15.843  -9.548  0.00  0.00    +0.000 C 
BRANCH  28  29
ATOM     29  C   UNK A   8     -17.926  15.129 -10.856  0.00  0.00    +0.000 C 
BRANCH  29  30
ATOM     30  C   UNK A   8     -16.956  15.414 -12.003  0.00  0.00    +0.000 C 
ATOM     31  O   UNK A   8     -16.181  14.534 -12.425  0.00  0.00    +0.000 OA
ATOM     32  N   ALA A   4     -17.000  16.656 -12.482  0.00  0.00    +0.000 N 
ATOM     33  H   ALA A   4     -17.657  17.335 -12.047  0.00  0.00    +0.000 HD
BRANCH  32  34
ATOM     34  CA  ALA A   4     -16.167  17.104 -13.589  0.00  0.00    +0.000 C 
ATOM     35  CB  ALA A   4     -16.900  16.905 -14.895  0.00  0.00    +0.000 C 
BRANCH  34  36
ATOM     36  C   ALA A   4     -15.821  18.560 -13.424  0.00  0.00    +0.000 C 
ATOM     37  O   ALA A   4     -16.539  19.297 -12.753  0.00  0.00    +0.000 OA
ATOM     38  N   GLY A   5     -14.703  18.969 -13.998  0.00  0.00    +0.000 N 
ATOM     39  H   GLY A   5     -13.998  18.273 -14.315  0.00  0.00    +0.000 HD
BRANCH  38  40
ATOM     40  CA  GLY A   5     -14.455  20.384 -14.188  0.00  0.00    +0.000 C 
BRANCH  40  41
ATOM     41  C   GLY A   5     -14.811  20.703 -15.637  0.00  0.00    +0.000 C 
ATOM     42  N   UNK A   6     -15.802  21.563 -15.848  0.00  0.00    +0.000 N 
ATOM     43  H   UNK A   6     -16.258  22.022 -15.034  0.00  0.00    +0.000 HD
ATOM     44  O   GLY A   5     -14.202  20.167 -16.549  0.00  0.00    +0.000 OA
BRANCH  42  45
ATOM     45  C   UNK A   6     -16.264  21.878 -17.192  0.00  0.00    +0.000 C 
BRANCH  45  46
ATOM     46  C   UNK A   6     -15.292  22.783 -17.945  0.00  0.00    +0.000 C 
ATOM     47  O   UNK A   6     -14.423  23.450 -17.371  0.00  0.00    +0.000 OA
ENDBRANCH  45  46
BRANCH  45  48
ATOM     48  C   UNK A   6     -17.655  22.530 -17.112  0.00  0.00    +0.000 C 
BRANCH  48  49
ATOM     49  C   UNK A   6     -18.770  21.687 -16.479  0.00  0.00    +0.000 C 
ATOM     50  C   UNK A   6     -20.104  22.370 -16.639  0.00  0.00    +0.000 C 
ATOM     51  C   UNK A   6     -18.826  20.286 -17.083  0.00  0.00    +0.000 C 
ENDBRANCH  48  49
ENDBRANCH  45  48
ENDBRANCH  42  45
ENDBRANCH  40  41
ENDBRANCH  38  40
ENDBRANCH  34  36
ENDBRANCH  32  34
ENDBRANCH  29  30
BRANCH  29  52
ATOM     52  N   UNK A   8     -18.059  13.684 -10.584  0.00  0.00    +0.000 N 
ATOM     53  C   LEU A   2     -19.212  13.237 -10.143  0.00  0.00    +0.000 C 
ATOM     54  O   LEU A   2     -20.147  13.966  -9.930  0.00  0.00    +0.000 OA
ATOM     55  H   UNK A   8     -17.260  13.037 -10.738  0.00  0.00    +0.000 HD
BRANCH  53  56
ATOM     56  CA  LEU A   2     -19.301  11.738  -9.846  0.00  0.00    +0.000 C 
BRANCH  56  57
ATOM     57  N   LEU A   2     -19.831  11.576  -8.477  0.00  0.00    +0.000 N 
ATOM     58  C   THR A   1     -19.368  12.320  -7.456  0.00  0.00    +0.000 C 
ATOM     59  O   THR A   1     -18.311  12.937  -7.469  0.00  0.00    +0.000 OA
ATOM     60  H   LEU A   2     -20.577  10.873  -8.299  0.00  0.00    +0.000 HD
BRANCH  58  61
ATOM     61  CA  THR A   1     -20.315  12.486  -6.303  0.00  0.00    +0.000 C 
BRANCH  61  62
ATOM     62  CB  THR A   1     -19.517  12.760  -4.999  0.00  0.00    +0.000 C 
ATOM     63  CG2 THR A   1     -20.440  13.184  -3.911  0.00  0.00    +0.000 C 
BRANCH  62  64
ATOM     64  OG1 THR A   1     -18.823  11.571  -4.600  0.00  0.00    +0.000 OA
ATOM     65  HG1 THR A   1     -18.316  11.750  -3.769  0.00  0.00    +0.000 HD
ENDBRANCH  62  64
ENDBRANCH  61  62
BRANCH  61  66
ATOM     66  N   THR A   1     -21.217  11.345  -6.136  0.00  0.00    +0.000 NA
ATOM     67  H   THR A   1     -20.846  10.441  -5.780  0.00  0.00    +0.000 HD
ENDBRANCH  61  66
ENDBRANCH  58  61
ENDBRANCH  56  57
BRANCH  56  68
ATOM     68  CB  LEU A   2     -20.206  11.038 -10.857  0.00  0.00    +0.000 C 
BRANCH  68  69
ATOM     69  CG  LEU A   2     -19.876  11.103 -12.354  0.00  0.00    +0.000 C 
ATOM     70  CD2 LEU A   2     -18.652  10.237 -12.594  0.00  0.00    +0.000 C 
ATOM     71  CD1 LEU A   2     -21.081  10.626 -13.187  0.00  0.00    +0.000 C 
ENDBRANCH  68  69
ENDBRANCH  56  68
ENDBRANCH  53  56
ENDBRANCH  29  52
ENDBRANCH  28  29
ENDBRANCH  26  28
ENDBRANCH  13  23
BRANCH   1  73
ATOM     72  C   GLY A   5     -15.653  11.975 -14.765  0.00  0.00    +0.000 C 
ATOM     73  N   UNK A   6     -15.474  11.938 -13.457  0.00  0.00    +0.000 N 
ATOM     74  H   UNK A   6     -15.864  12.704 -12.872  0.00  0.00    +0.000 HD
ATOM     75  O   GLY A   5     -15.283  11.088 -15.511  0.00  0.00    +0.000 OA
BRANCH  72  76
ATOM     76  CA  GLY A   5     -16.335  13.247 -15.257  0.00  0.00    +0.000 C 
BRANCH  76  79
ATOM     77  C   ALA A   4     -14.471  14.097 -16.557  0.00  0.00    +0.000 C 
ATOM     78  O   ALA A   4     -13.695  13.825 -15.666  0.00  0.00    +0.000 OA
ATOM     79  N   GLY A   5     -15.769  13.791 -16.501  0.00  0.00    +0.000 N 
ATOM     80  H   GLY A   5     -16.377  13.936 -17.332  0.00  0.00    +0.000 HD
BRANCH  77  81
ATOM     81  CA  ALA A   4     -13.959  14.806 -17.808  0.00  0.00    +0.000 C 
BRANCH  81  84
ATOM     82  C   UNK A   3     -12.757  16.629 -16.630  0.00  0.00    +0.000 C 
ATOM     83  O   UNK A   3     -13.725  16.898 -15.913  0.00  0.00    +0.000 OA
ATOM     84  N   ALA A   4     -12.782  15.661 -17.561  0.00  0.00    +0.000 N 
ATOM     85  H   ALA A   4     -11.929  15.506 -18.136  0.00  0.00    +0.000 HD
BRANCH  82  86
ATOM     86  C   UNK A   3     -11.461  17.432 -16.480  0.00  0.00    +0.000 C 
BRANCH  86  88
ATOM     87  C   LEU A   2     -10.841  19.335 -17.951  0.00  0.00    +0.000 C 
ATOM     88  N   UNK A   3     -11.712  18.740 -17.135  0.00  0.00    +0.000 N 
ATOM     89  H   UNK A   3     -12.616  19.218 -16.947  0.00  0.00    +0.000 HD
ATOM     90  O   LEU A   2      -9.739  18.902 -18.186  0.00  0.00    +0.000 OA
BRANCH  87  91
ATOM     91  CA  LEU A   2     -11.292  20.641 -18.584  0.00  0.00    +0.000 C 
BRANCH  91  93
ATOM     92  C   THR A   1     -10.179  22.497 -19.714  0.00  0.00    +0.000 C 
ATOM     93  N   LEU A   2     -10.152  21.245 -19.266  0.00  0.00    +0.000 N 
ATOM     94  H   LEU A   2      -9.291  20.679 -19.406  0.00  0.00    +0.000 HD
ATOM     95  O   THR A   1     -11.068  23.300 -19.425  0.00  0.00    +0.000 OA
BRANCH  92  96
ATOM     96  CA  THR A   1      -9.037  22.862 -20.675  0.00  0.00    +0.000 C 
BRANCH  96  97
ATOM     97  N   THR A   1      -9.452  23.938 -21.576  0.00  0.00    +0.000 NA
ATOM     98  H   THR A   1      -9.342  24.927 -21.273  0.00  0.00    +0.000 HD
ENDBRANCH  96  97
BRANCH  96  99
ATOM     99  CB  THR A   1      -7.760  23.248 -19.931  0.00  0.00    +0.000 C 
BRANCH  99 100
ATOM    100  CG  THR A   1      -6.567  23.323 -20.879  0.00  0.00    +0.000 C 
BRANCH 100 101
ATOM    101  CD  THR A   1      -5.245  23.331 -20.191  0.00  0.00    +0.000 C 
ATOM    102  OE1 THR A   1      -5.015  24.086 -19.279  0.00  0.00    +0.000 OA
ATOM    103  NE2 THR A   1      -4.352  22.463 -20.632  0.00  0.00    +0.000 N 
ATOM    104 HE21 THR A   1      -3.412  22.414 -20.190  0.00  0.00    +0.000 HD
ATOM    105 HE22 THR A   1      -4.589  21.829 -21.421  0.00  0.00    +0.000 HD
ENDBRANCH 100 101
ENDBRANCH  99 100
ENDBRANCH  96  99
ENDBRANCH  92  96
ENDBRANCH  91  93
BRANCH  91 106
ATOM    106  CB  LEU A   2     -12.445  20.357 -19.546  0.00  0.00    +0.000 C 
BRANCH 106 107
ATOM    107  CG  LEU A   2     -12.120  19.378 -20.639  0.00  0.00    +0.000 A 
ATOM    108  CD2 LEU A   2     -12.416  18.025 -20.486  0.00  0.00    +0.000 A 
ATOM    109  CE2 LEU A   2     -12.118  17.130 -21.487  0.00  0.00    +0.000 A 
ATOM    110  CZ  LEU A   2     -11.499  17.576 -22.642  0.00  0.00    +0.000 A 
ATOM    111  CE1 LEU A   2     -11.177  18.898 -22.817  0.00  0.00    +0.000 A 
ATOM    112  CD1 LEU A   2     -11.468  19.795 -21.815  0.00  0.00    +0.000 A 
BRANCH 110 113
ATOM    113  OH  LEU A   2     -11.190  16.698 -23.650  0.00  0.00    +0.000 OA
ATOM    114  HH  LEU A   2     -12.020  16.269 -23.978  0.00  0.00    +0.000 HD
ENDBRANCH 110 113
ENDBRANCH 106 107
ENDBRANCH  91 106
ENDBRANCH  87  91
ENDBRANCH  86  88
BRANCH  86 115
ATOM    115  C   UNK A   3     -11.071  17.614 -14.993  0.00  0.00    +0.000 C 
BRANCH 115 116
ATOM    116  C   UNK A   3     -10.414  16.415 -14.307  0.00  0.00    +0.000 A 
ATOM    117  C   UNK A   3      -9.727  16.606 -13.110  0.00  0.00    +0.000 A 
ATOM    118  C   UNK A   3      -9.130  15.550 -12.457  0.00  0.00    +0.000 A 
ATOM    119  C   UNK A   3      -9.165  14.290 -13.006  0.00  0.00    +0.000 A 
ATOM    120  C   UNK A   3      -9.871  14.057 -14.190  0.00  0.00    +0.000 A 
ATOM    121  C   UNK A   3     -10.483  15.119 -14.836  0.00  0.00    +0.000 A 
BRANCH 119 122
ATOM    122  O   UNK A   3      -8.570  13.233 -12.350  0.00  0.00    +0.000 OA
ATOM    123  H   UNK A   3      -8.991  13.118 -11.461  0.00  0.00    +0.000 HD
ENDBRANCH 119 122
ENDBRANCH 115 116
ENDBRANCH  86 115
ENDBRANCH  82  86
ENDBRANCH  81  84
BRANCH  81 124
ATOM    124  CB  ALA A   4     -13.628  13.744 -18.841  0.00  0.00    +0.000 C 
BRANCH 124 125
ATOM    125  CG  ALA A   4     -14.780  12.903 -19.334  0.00  0.00    +0.000 A 
ATOM    126  CD2 ALA A   4     -14.893  11.568 -18.968  0.00  0.00    +0.000 A 
ATOM    127  CE2 ALA A   4     -15.934  10.781 -19.437  0.00  0.00    +0.000 A 
ATOM    128  CZ  ALA A   4     -16.877  11.332 -20.292  0.00  0.00    +0.000 A 
ATOM    129  CE1 ALA A   4     -16.783  12.654 -20.665  0.00  0.00    +0.000 A 
ATOM    130  CD1 ALA A   4     -15.729  13.428 -20.205  0.00  0.00    +0.000 A 
BRANCH 128 131
ATOM    131  OH  ALA A   4     -17.922  10.571 -20.779  0.00  0.00    +0.000 OA
ATOM    132  HH  ALA A   4     -18.464  10.234 -20.022  0.00  0.00    +0.000 HD
ENDBRANCH 128 131
ENDBRANCH 124 125
ENDBRANCH  81 124
ENDBRANCH  77  81
ENDBRANCH  76  79
BRANCH  76 133
ATOM    133  CB  GLY A   5     -17.855  13.037 -15.364  0.00  0.00    +0.000 C 
BRANCH 133 134
ATOM    134  CG  GLY A   5     -18.312  12.157 -16.477  0.00  0.00    +0.000 A 
ATOM    135  ND1 GLY A   5     -18.182  10.783 -16.459  0.00  0.00    +0.000 NA
ATOM    136  CE1 GLY A   5     -18.712  10.280 -17.563  0.00  0.00    +0.000 A 
ATOM    137  NE2 GLY A   5     -19.198  11.276 -18.281  0.00  0.00    +0.000 NA
ATOM    138  CD2 GLY A   5     -18.955  12.460 -17.632  0.00  0.00    +0.000 A 
ENDBRANCH 133 134
ENDBRANCH  76 133
ENDBRANCH  72  76
ENDBRANCH   1  73
BRANCH   8 139
ATOM    139  C   UNK A   8     -11.098   9.614  -6.205  0.00  0.00    +0.000 C 
ATOM    140  O   UNK A   8      -9.964   9.683  -5.761  0.00  0.00    +0.000 OA
ENDBRANCH   8 139
BRANCH   4 141
ATOM    141  CB  TYR A   7     -15.101   8.411  -8.650  0.00  0.00    +0.000 C 
BRANCH 141 142
ATOM    142  CG  TYR A   7     -16.369   7.900  -9.313  0.00  0.00    +0.000 A 
ATOM    143  CD2 TYR A   7     -17.608   8.410  -8.954  0.00  0.00    +0.000 A 
ATOM    144  CE2 TYR A   7     -18.738   7.939  -9.484  0.00  0.00    +0.000 A 
ATOM    145  CZ  TYR A   7     -18.690   6.958 -10.436  0.00  0.00    +0.000 A 
ATOM    146  CE1 TYR A   7     -17.499   6.409 -10.831  0.00  0.00    +0.000 A 
ATOM    147  CD1 TYR A   7     -16.332   6.873 -10.258  0.00  0.00    +0.000 A 
BRANCH 145 148
ATOM    148  OH  TYR A   7     -19.880   6.521 -10.955  0.00  0.00    +0.000 OA
ATOM    149  HH  TYR A   7     -20.624   7.034 -10.550  0.00  0.00    +0.000 HD
ENDBRANCH 145 148
ENDBRANCH 141 142
ENDBRANCH   4 141
TORSDOF 50
REMARK  Name = ../refined-set-2016/5c5t/5c5t_pocket.pdb
REMARK  163 active torsions:
REMARK  status: ('A' for Active; 'I' for Inactive)
REMARK    1  A    between atoms: _1  and  _3
REMARK    2  A    between atoms: _3  and  _4
REMARK    3  A    between atoms: _3  and  _6
REMARK    4  A    between atoms: _6  and  _7
REMARK    5  A    between atoms: _7  and  _8
REMARK    6  A    between atoms: _8  and  _9
REMARK    7  A    between atoms: _18  and  _20
REMARK    8  A    between atoms: _20  and  _21
REMARK    9  A    between atoms: _20  and  _23
REMARK   10  A    between atoms: _23  and  _24
REMARK   11  A    between atoms: _26  and  _28
REMARK   12  A    between atoms: _28  and  _29
REMARK   13  A    between atoms: _28  and  _31
REMARK   14  A    between atoms: _31  and  _32
REMARK   15  A    between atoms: _32  and  _33
REMARK   16  A    between atoms: _38  and  _40
REMARK   17  A    between atoms: _40  and  _41
REMARK   18  A    between atoms: _40  and  _43
REMARK   19  A    between atoms: _43  and  _44
REMARK   20  A    between atoms: _44  and  _45
REMARK   21  A    between atoms: _50  and  _52
REMARK   22  A    between atoms: _52  and  _53
REMARK   23  A    between atoms: _56  and  _58
REMARK   24  A    between atoms: _58  and  _59
REMARK   25  A    between atoms: _58  and  _61
REMARK   26  A    between atoms: _61  and  _62
REMARK   27  A    between atoms: _62  and  _63
REMARK   28  A    between atoms: _63  and  _64
REMARK   29  A    between atoms: _73  and  _75
REMARK   30  A    between atoms: _75  and  _76
REMARK   31  A    between atoms: _75  and  _78
REMARK   32  A    between atoms: _78  and  _79
REMARK   33  A    between atoms: _84  and  _85
REMARK   34  A    between atoms: _87  and  _89
REMARK   35  A    between atoms: _89  and  _90
REMARK   36  A    between atoms: _89  and  _92
REMARK   37  A    between atoms: _92  and  _93
REMARK   38  A    between atoms: _93  and  _94
REMARK   39  A    between atoms: _99  and  _101
REMARK   40  A    between atoms: _101  and  _102
REMARK   41  A    between atoms: _101  and  _104
REMARK   42  A    between atoms: _104  and  _105
REMARK   43  A    between atoms: _110  and  _111
REMARK   44  A    between atoms: _113  and  _115
REMARK   45  A    between atoms: _115  and  _116
REMARK   46  A    between atoms: _115  and  _118
REMARK   47  A    between atoms: _118  and  _119
REMARK   48  A    between atoms: _124  and  _125
REMARK   49  A    between atoms: _127  and  _129
REMARK   50  A    between atoms: _129  and  _130
REMARK   51  A    between atoms: _129  and  _132
REMARK   52  A    between atoms: _132  and  _133
REMARK   53  A    between atoms: _138  and  _139
REMARK   54  A    between atoms: _141  and  _143
REMARK   55  A    between atoms: _143  and  _144
REMARK   56  A    between atoms: _143  and  _146
REMARK   57  A    between atoms: _146  and  _147
REMARK   58  A    between atoms: _152  and  _154
REMARK   59  A    between atoms: _165  and  _168
REMARK   60  A    between atoms: _168  and  _169
REMARK   61  A    between atoms: _174  and  _175
REMARK   62  A    between atoms: _179  and  _180
REMARK   63  A    between atoms: _186  and  _188
REMARK   64  A    between atoms: _188  and  _189
REMARK   65  A    between atoms: _188  and  _191
REMARK   66  A    between atoms: _191  and  _192
REMARK   67  A    between atoms: _192  and  _193
REMARK   68  A    between atoms: _193  and  _194
REMARK   69  A    between atoms: _203  and  _205
REMARK   70  A    between atoms: _205  and  _206
REMARK   71  A    between atoms: _205  and  _208
REMARK   72  A    between atoms: _208  and  _209
REMARK   73  A    between atoms: _212  and  _214
REMARK   74  A    between atoms: _214  and  _215
REMARK   75  A    between atoms: _214  and  _217
REMARK   76  A    between atoms: _217  and  _218
REMARK   77  A    between atoms: _218  and  _219
REMARK   78  A    between atoms: _221  and  _223
REMARK   79  A    between atoms: _223  and  _224
REMARK   80  A    between atoms: _223  and  _226
REMARK   81  A    between atoms: _226  and  _227
REMARK   82  A    between atoms: _232  and  _233
REMARK   83  A    between atoms: _235  and  _237
REMARK   84  A    between atoms: _237  and  _238
REMARK   85  A    between atoms: _240  and  _242
REMARK   86  A    between atoms: _242  and  _243
REMARK   87  A    between atoms: _242  and  _245
REMARK   88  A    between atoms: _245  and  _246
REMARK   89  A    between atoms: _246  and  _247
REMARK   90  A    between atoms: _250  and  _252
REMARK   91  A    between atoms: _252  and  _253
REMARK   92  A    between atoms: _252  and  _255
REMARK   93  A    between atoms: _255  and  _256
REMARK   94  A    between atoms: _259  and  _261
REMARK   95  A    between atoms: _261  and  _262
REMARK   96  A    between atoms: _261  and  _264
REMARK   97  A    between atoms: _264  and  _265
REMARK   98  A    between atoms: _268  and  _270
REMARK   99  A    between atoms: _270  and  _271
REMARK  100  A    between atoms: _270  and  _273
REMARK  101  A    between atoms: _273  and  _274
REMARK  102  A    between atoms: _280  and  _282
REMARK  103  A    between atoms: _282  and  _283
REMARK  104  A    between atoms: _282  and  _285
REMARK  105  A    between atoms: _285  and  _286
REMARK  106  A    between atoms: _290  and  _291
REMARK  107  A    between atoms: _296  and  _298
REMARK  108  A    between atoms: _298  and  _299
REMARK  109  A    between atoms: _298  and  _301
REMARK  110  A    between atoms: _301  and  _302
REMARK  111  A    between atoms: _305  and  _307
REMARK  112  A    between atoms: _307  and  _308
REMARK  113  A    between atoms: _307  and  _310
REMARK  114  A    between atoms: _310  and  _311
REMARK  115  A    between atoms: _317  and  _319
REMARK  116  A    between atoms: _319  and  _320
REMARK  117  A    between atoms: _319  and  _322
REMARK  118  A    between atoms: _322  and  _323
REMARK  119  A    between atoms: _326  and  _328
REMARK  120  A    between atoms: _328  and  _329
REMARK  121  A    between atoms: _328  and  _331
REMARK  122  A    between atoms: _331  and  _332
REMARK  123  A    between atoms: _335  and  _337
REMARK  124  A    between atoms: _337  and  _338
REMARK  125  A    between atoms: _337  and  _340
REMARK  126  A    between atoms: _340  and  _341
REMARK  127  A    between atoms: _345  and  ZN_438
REMARK  128  A    between atoms: _346  and  _348
REMARK  129  A    between atoms: _348  and  _349
REMARK  130  A    between atoms: _352  and  _354
REMARK  131  A    between atoms: _354  and  _355
REMARK  132  A    between atoms: _357  and  _359
REMARK  133  A    between atoms: _359  and  _360
REMARK  134  A    between atoms: _359  and  _362
REMARK  135  A    between atoms: _362  and  _363
REMARK  136  A    between atoms: _366  and  _368
REMARK  137  A    between atoms: _368  and  _369
REMARK  138  A    between atoms: _368  and  _371
REMARK  139  A    between atoms: _374  and  _376
REMARK  140  A    between atoms: _376  and  _377
REMARK  141  A    between atoms: _376  and  _379
REMARK  142  A    between atoms: _379  and  _380
REMARK  143  A    between atoms: _380  and  _381
REMARK  144  A    between atoms: _381  and  _382
REMARK  145  A    between atoms: _382  and  _383
REMARK  146  A    between atoms: _387  and  _389
REMARK  147  A    between atoms: _389  and  _390
REMARK  148  A    between atoms: _389  and  _392
REMARK  149  A    between atoms: _392  and  _393
REMARK  150  A    between atoms: _396  and  _398
REMARK  151  A    between atoms: _398  and  _399
REMARK  152  A    between atoms: _398  and  _401
REMARK  153  A    between atoms: _401  and  _402
REMARK  154  A    between atoms: _405  and  _407
REMARK  155  A    between atoms: _407  and  _408
REMARK  156  A    between atoms: _411  and  _413
REMARK  157  A    between atoms: _413  and  _414
REMARK  158  A    between atoms: _413  and  _416
REMARK  159  A    between atoms: _416  and  _417
REMARK  160  A    between atoms: _422  and  _424
REMARK  161  A    between atoms: _424  and  _425
REMARK  162  A    between atoms: _424  and  _427
REMARK  163  A    between atoms: _427  and  _428
REMARK                            x       y       z     vdW  Elec       q    Type
REMARK                         _______ _______ _______ _____ _____    ______ ____
ROOT
ATOM      1  NE  ARG A   1      -6.636  11.071  -4.075  0.00  0.00    -0.265 N 
ATOM      2  HE  ARG A   1      -5.896  11.057  -3.345  0.00  0.00    +0.259 HD
ATOM      3  CZ  ARG A   1      -6.284  11.405  -5.310  0.00  0.00    +0.342 C 
ATOM      4  NH2 ARG A   1      -5.009  11.731  -5.588  0.00  0.00    -0.292 N 
ATOM      5 HH21 ARG A   1      -4.294  11.722  -4.833  0.00  0.00    +0.255 HD
ATOM      6 HH22 ARG A   1      -4.739  11.992  -6.558  0.00  0.00    +0.255 HD
ATOM      7  NH1 ARG A   1      -7.212  11.409  -6.260  0.00  0.00    -0.292 N 
ATOM      8 HH11 ARG A   1      -8.193  11.153  -6.029  0.00  0.00    +0.255 HD
ATOM      9 HH12 ARG A   1      -6.957  11.668  -7.235  0.00  0.00    +0.255 HD
ENDROOT
BRANCH   1  10
ATOM     10  CD  ARG A   1      -7.987  10.725  -3.679  0.00  0.00    +0.174 C 
BRANCH  10  11
ATOM     11  CG  ARG A   1      -8.013   9.878  -2.465  0.00  0.00    +0.045 C 
BRANCH  11  12
ATOM     12  CB  ARG A   1      -9.433   9.470  -2.075  0.00  0.00    +0.029 C 
BRANCH  12  13
ATOM     13  CA  ARG A   1      -9.530   8.638  -0.816  0.00  0.00    +0.133 C 
BRANCH  13  14
ATOM     14  N   ARG A   1      -9.086   7.258  -1.045  0.00  0.00    -0.239 NA
ATOM     15  H   ARG A   1      -8.862   6.948  -2.012  0.00  0.00    +0.142 HD
ENDBRANCH  13  14
BRANCH  13  16
ATOM     16  C   ARG A   1     -10.977   8.650  -0.288  0.00  0.00    +0.224 C 
ATOM     17  O   ARG A   1     -11.876   8.069  -0.884  0.00  0.00    -0.287 OA
ENDBRANCH  13  16
ENDBRANCH  12  13
ENDBRANCH  11  12
ENDBRANCH  10  11
ENDBRANCH   1  10
TORSDOF 6
REMARK  Name = ../refined-set-2016/5c5t/5c5t_pocket.pdb
REMARK  163 active torsions:
REMARK  status: ('A' for Active; 'I' for Inactive)
REMARK    1  A    between atoms: _1  and  _3
REMARK    2  A    between atoms: _3  and  _4
REMARK    3  A    between atoms: _3  and  _6
REMARK    4  A    between atoms: _6  and  _7
REMARK    5  A    between atoms: _7  and  _8
REMARK    6  A    between atoms: _8  and  _9
REMARK    7  A    between atoms: _18  and  _20
REMARK    8  A    between atoms: _20  and  _21
REMARK    9  A    between atoms: _20  and  _23
REMARK   10  A    between atoms: _23  and  _24
REMARK   11  A    between atoms: _26  and  _28
REMARK   12  A    between atoms: _28  and  _29
REMARK   13  A    between atoms: _28  and  _31
REMARK   14  A    between atoms: _31  and  _32
REMARK   15  A    between atoms: _32  and  _33
REMARK   16  A    between atoms: _38  and  _40
REMARK   17  A    between atoms: _40  and  _41
REMARK   18  A    between atoms: _40  and  _43
REMARK   19  A    between atoms: _43  and  _44
REMARK   20  A    between atoms: _44  and  _45
REMARK   21  A    between atoms: _50  and  _52
REMARK   22  A    between atoms: _52  and  _53
REMARK   23  A    between atoms: _56  and  _58
REMARK   24  A    between atoms: _58  and  _59
REMARK   25  A    between atoms: _58  and  _61
REMARK   26  A    between atoms: _61  and  _62
REMARK   27  A    between atoms: _62  and  _63
REMARK   28  A    between atoms: _63  and  _64
REMARK   29  A    between atoms: _73  and  _75
REMARK   30  A    between atoms: _75  and  _76
REMARK   31  A    between atoms: _75  and  _78
REMARK   32  A    between atoms: _78  and  _79
REMARK   33  A    between atoms: _84  and  _85
REMARK   34  A    between atoms: _87  and  _89
REMARK   35  A    between atoms: _89  and  _90
REMARK   36  A    between atoms: _89  and  _92
REMARK   37  A    between atoms: _92  and  _93
REMARK   38  A    between atoms: _93  and  _94
REMARK   39  A    between atoms: _99  and  _101
REMARK   40  A    between atoms: _101  and  _102
REMARK   41  A    between atoms: _101  and  _104
REMARK   42  A    between atoms: _104  and  _105
REMARK   43  A    between atoms: _110  and  _111
REMARK   44  A    between atoms: _113  and  _115
REMARK   45  A    between atoms: _115  and  _116
REMARK   46  A    between atoms: _115  and  _118
REMARK   47  A    between atoms: _118  and  _119
REMARK   48  A    between atoms: _124  and  _125
REMARK   49  A    between atoms: _127  and  _129
REMARK   50  A    between atoms: _129  and  _130
REMARK   51  A    between atoms: _129  and  _132
REMARK   52  A    between atoms: _132  and  _133
REMARK   53  A    between atoms: _138  and  _139
REMARK   54  A    between atoms: _141  and  _143
REMARK   55  A    between atoms: _143  and  _144
REMARK   56  A    between atoms: _143  and  _146
REMARK   57  A    between atoms: _146  and  _147
REMARK   58  A    between atoms: _152  and  _154
REMARK   59  A    between atoms: _165  and  _168
REMARK   60  A    between atoms: _168  and  _169
REMARK   61  A    between atoms: _174  and  _175
REMARK   62  A    between atoms: _179  and  _180
REMARK   63  A    between atoms: _186  and  _188
REMARK   64  A    between atoms: _188  and  _189
REMARK   65  A    between atoms: _188  and  _191
REMARK   66  A    between atoms: _191  and  _192
REMARK   67  A    between atoms: _192  and  _193
REMARK   68  A    between atoms: _193  and  _194
REMARK   69  A    between atoms: _203  and  _205
REMARK   70  A    between atoms: _205  and  _206
REMARK   71  A    between atoms: _205  and  _208
REMARK   72  A    between atoms: _208  and  _209
REMARK   73  A    between atoms: _212  and  _214
REMARK   74  A    between atoms: _214  and  _215
REMARK   75  A    between atoms: _214  and  _217
REMARK   76  A    between atoms: _217  and  _218
REMARK   77  A    between atoms: _218  and  _219
REMARK   78  A    between atoms: _221  and  _223
REMARK   79  A    between atoms: _223  and  _224
REMARK   80  A    between atoms: _223  and  _226
REMARK   81  A    between atoms: _226  and  _227
REMARK   82  A    between atoms: _232  and  _233
REMARK   83  A    between atoms: _235  and  _237
REMARK   84  A    between atoms: _237  and  _238
REMARK   85  A    between atoms: _240  and  _242
REMARK   86  A    between atoms: _242  and  _243
REMARK   87  A    between atoms: _242  and  _245
REMARK   88  A    between atoms: _245  and  _246
REMARK   89  A    between atoms: _246  and  _247
REMARK   90  A    between atoms: _250  and  _252
REMARK   91  A    between atoms: _252  and  _253
REMARK   92  A    between atoms: _252  and  _255
REMARK   93  A    between atoms: _255  and  _256
REMARK   94  A    between atoms: _259  and  _261
REMARK   95  A    between atoms: _261  and  _262
REMARK   96  A    between atoms: _261  and  _264
REMARK   97  A    between atoms: _264  and  _265
REMARK   98  A    between atoms: _268  and  _270
REMARK   99  A    between atoms: _270  and  _271
REMARK  100  A    between atoms: _270  and  _273
REMARK  101  A    between atoms: _273  and  _274
REMARK  102  A    between atoms: _280  and  _282
REMARK  103  A    between atoms: _282  and  _283
REMARK  104  A    between atoms: _282  and  _285
REMARK  105  A    between atoms: _285  and  _286
REMARK  106  A    between atoms: _290  and  _291
REMARK  107  A    between atoms: _296  and  _298
REMARK  108  A    between atoms: _298  and  _299
REMARK  109  A    between atoms: _298  and  _301
REMARK  110  A    between atoms: _301  and  _302
REMARK  111  A    between atoms: _305  and  _307
REMARK  112  A    between atoms: _307  and  _308
REMARK  113  A    between atoms: _307  and  _310
REMARK  114  A    between atoms: _310  and  _311
REMARK  115  A    between atoms: _317  and  _319
REMARK  116  A    between atoms: _319  and  _320
REMARK  117  A    between atoms: _319  and  _322
REMARK  118  A    between atoms: _322  and  _323
REMARK  119  A    between atoms: _326  and  _328
REMARK  120  A    between atoms: _328  and  _329
REMARK  121  A    between atoms: _328  and  _331
REMARK  122  A    between atoms: _331  and  _332
REMARK  123  A    between atoms: _335  and  _337
REMARK  124  A    between atoms: _337  and  _338
REMARK  125  A    between atoms: _337  and  _340
REMARK  126  A    between atoms: _340  and  _341
REMARK  127  A    between atoms: _345  and  ZN_438
REMARK  128  A    between atoms: _346  and  _348
REMARK  129  A    between atoms: _348  and  _349
REMARK  130  A    between atoms: _352  and  _354
REMARK  131  A    between atoms: _354  and  _355
REMARK  132  A    between atoms: _357  and  _359
REMARK  133  A    between atoms: _359  and  _360
REMARK  134  A    between atoms: _359  and  _362
REMARK  135  A    between atoms: _362  and  _363
REMARK  136  A    between atoms: _366  and  _368
REMARK  137  A    between atoms: _368  and  _369
REMARK  138  A    between atoms: _368  and  _371
REMARK  139  A    between atoms: _374  and  _376
REMARK  140  A    between atoms: _376  and  _377
REMARK  141  A    between atoms: _376  and  _379
REMARK  142  A    between atoms: _379  and  _380
REMARK  143  A    between atoms: _380  and  _381
REMARK  144  A    between atoms: _381  and  _382
REMARK  145  A    between atoms: _382  and  _383
REMARK  146  A    between atoms: _387  and  _389
REMARK  147  A    between atoms: _389  and  _390
REMARK  148  A    between atoms: _389  and  _392
REMARK  149  A    between atoms: _392  and  _393
REMARK  150  A    between atoms: _396  and  _398
REMARK  151  A    between atoms: _398  and  _399
REMARK  152  A    between atoms: _398  and  _401
REMARK  153  A    between atoms: _401  and  _402
REMARK  154  A    between atoms: _405  and  _407
REMARK  155  A    between atoms: _407  and  _408
REMARK  156  A    between atoms: _411  and  _413
REMARK  157  A    between atoms: _413  and  _414
REMARK  158  A    between atoms: _413  and  _416
REMARK  159  A    between atoms: _416  and  _417
REMARK  160  A    between atoms: _422  and  _424
REMARK  161  A    between atoms: _424  and  _425
REMARK  162  A    between atoms: _424  and  _427
REMARK  163  A    between atoms: _427  and  _428
REMARK                            x       y       z     vdW  Elec       q    Type
REMARK                         _______ _______ _______ _____ _____    ______ ____
ROOT
ATOM      1  CA  THR A   1     -12.060  16.058  -1.113  0.00  0.00    +0.160 C 
ENDROOT
BRANCH   1   2
ATOM      2  N   THR A   1     -12.779  14.993  -0.434  0.00  0.00    -0.237 NA
ATOM      3  H   THR A   1     -13.812  15.081  -0.354  0.00  0.00    +0.142 HD
ENDBRANCH   1   2
BRANCH   1   4
ATOM      4  C   THR A   1     -12.440  17.427  -0.579  0.00  0.00    +0.227 C 
ATOM      5  O   THR A   1     -13.611  17.712  -0.469  0.00  0.00    -0.287 OA
ENDBRANCH   1   4
BRANCH   1   6
ATOM      6  CB  THR A   1     -12.367  16.069  -2.633  0.00  0.00    +0.134 C 
ATOM      7  CG2 THR A   1     -11.573  17.143  -3.396  0.00  0.00    +0.034 C 
BRANCH   6   8
ATOM      8  OG1 THR A   1     -12.140  14.765  -3.238  0.00  0.00    -0.383 OA
ATOM      9  HG1 THR A   1     -12.346  14.811  -4.205  0.00  0.00    +0.210 HD
ENDBRANCH   6   8
ENDBRANCH   1   6
TORSDOF 4
REMARK  Name = ../refined-set-2016/5c5t/5c5t_pocket.pdb
REMARK  163 active torsions:
REMARK  status: ('A' for Active; 'I' for Inactive)
REMARK    1  A    between atoms: _1  and  _3
REMARK    2  A    between atoms: _3  and  _4
REMARK    3  A    between atoms: _3  and  _6
REMARK    4  A    between atoms: _6  and  _7
REMARK    5  A    between atoms: _7  and  _8
REMARK    6  A    between atoms: _8  and  _9
REMARK    7  A    between atoms: _18  and  _20
REMARK    8  A    between atoms: _20  and  _21
REMARK    9  A    between atoms: _20  and  _23
REMARK   10  A    between atoms: _23  and  _24
REMARK   11  A    between atoms: _26  and  _28
REMARK   12  A    between atoms: _28  and  _29
REMARK   13  A    between atoms: _28  and  _31
REMARK   14  A    between atoms: _31  and  _32
REMARK   15  A    between atoms: _32  and  _33
REMARK   16  A    between atoms: _38  and  _40
REMARK   17  A    between atoms: _40  and  _41
REMARK   18  A    between atoms: _40  and  _43
REMARK   19  A    between atoms: _43  and  _44
REMARK   20  A    between atoms: _44  and  _45
REMARK   21  A    between atoms: _50  and  _52
REMARK   22  A    between atoms: _52  and  _53
REMARK   23  A    between atoms: _56  and  _58
REMARK   24  A    between atoms: _58  and  _59
REMARK   25  A    between atoms: _58  and  _61
REMARK   26  A    between atoms: _61  and  _62
REMARK   27  A    between atoms: _62  and  _63
REMARK   28  A    between atoms: _63  and  _64
REMARK   29  A    between atoms: _73  and  _75
REMARK   30  A    between atoms: _75  and  _76
REMARK   31  A    between atoms: _75  and  _78
REMARK   32  A    between atoms: _78  and  _79
REMARK   33  A    between atoms: _84  and  _85
REMARK   34  A    between atoms: _87  and  _89
REMARK   35  A    between atoms: _89  and  _90
REMARK   36  A    between atoms: _89  and  _92
REMARK   37  A    between atoms: _92  and  _93
REMARK   38  A    between atoms: _93  and  _94
REMARK   39  A    between atoms: _99  and  _101
REMARK   40  A    between atoms: _101  and  _102
REMARK   41  A    between atoms: _101  and  _104
REMARK   42  A    between atoms: _104  and  _105
REMARK   43  A    between atoms: _110  and  _111
REMARK   44  A    between atoms: _113  and  _115
REMARK   45  A    between atoms: _115  and  _116
REMARK   46  A    between atoms: _115  and  _118
REMARK   47  A    between atoms: _118  and  _119
REMARK   48  A    between atoms: _124  and  _125
REMARK   49  A    between atoms: _127  and  _129
REMARK   50  A    between atoms: _129  and  _130
REMARK   51  A    between atoms: _129  and  _132
REMARK   52  A    between atoms: _132  and  _133
REMARK   53  A    between atoms: _138  and  _139
REMARK   54  A    between atoms: _141  and  _143
REMARK   55  A    between atoms: _143  and  _144
REMARK   56  A    between atoms: _143  and  _146
REMARK   57  A    between atoms: _146  and  _147
REMARK   58  A    between atoms: _152  and  _154
REMARK   59  A    between atoms: _165  and  _168
REMARK   60  A    between atoms: _168  and  _169
REMARK   61  A    between atoms: _174  and  _175
REMARK   62  A    between atoms: _179  and  _180
REMARK   63  A    between atoms: _186  and  _188
REMARK   64  A    between atoms: _188  and  _189
REMARK   65  A    between atoms: _188  and  _191
REMARK   66  A    between atoms: _191  and  _192
REMARK   67  A    between atoms: _192  and  _193
REMARK   68  A    between atoms: _193  and  _194
REMARK   69  A    between atoms: _203  and  _205
REMARK   70  A    between atoms: _205  and  _206
REMARK   71  A    between atoms: _205  and  _208
REMARK   72  A    between atoms: _208  and  _209
REMARK   73  A    between atoms: _212  and  _214
REMARK   74  A    between atoms: _214  and  _215
REMARK   75  A    between atoms: _214  and  _217
REMARK   76  A    between atoms: _217  and  _218
REMARK   77  A    between atoms: _218  and  _219
REMARK   78  A    between atoms: _221  and  _223
REMARK   79  A    between atoms: _223  and  _224
REMARK   80  A    between atoms: _223  and  _226
REMARK   81  A    between atoms: _226  and  _227
REMARK   82  A    between atoms: _232  and  _233
REMARK   83  A    between atoms: _235  and  _237
REMARK   84  A    between atoms: _237  and  _238
REMARK   85  A    between atoms: _240  and  _242
REMARK   86  A    between atoms: _242  and  _243
REMARK   87  A    between atoms: _242  and  _245
REMARK   88  A    between atoms: _245  and  _246
REMARK   89  A    between atoms: _246  and  _247
REMARK   90  A    between atoms: _250  and  _252
REMARK   91  A    between atoms: _252  and  _253
REMARK   92  A    between atoms: _252  and  _255
REMARK   93  A    between atoms: _255  and  _256
REMARK   94  A    between atoms: _259  and  _261
REMARK   95  A    between atoms: _261  and  _262
REMARK   96  A    between atoms: _261  and  _264
REMARK   97  A    between atoms: _264  and  _265
REMARK   98  A    between atoms: _268  and  _270
REMARK   99  A    between atoms: _270  and  _271
REMARK  100  A    between atoms: _270  and  _273
REMARK  101  A    between atoms: _273  and  _274
REMARK  102  A    between atoms: _280  and  _282
REMARK  103  A    between atoms: _282  and  _283
REMARK  104  A    between atoms: _282  and  _285
REMARK  105  A    between atoms: _285  and  _286
REMARK  106  A    between atoms: _290  and  _291
REMARK  107  A    between atoms: _296  and  _298
REMARK  108  A    between atoms: _298  and  _299
REMARK  109  A    between atoms: _298  and  _301
REMARK  110  A    between atoms: _301  and  _302
REMARK  111  A    between atoms: _305  and  _307
REMARK  112  A    between atoms: _307  and  _308
REMARK  113  A    between atoms: _307  and  _310
REMARK  114  A    between atoms: _310  and  _311
REMARK  115  A    between atoms: _317  and  _319
REMARK  116  A    between atoms: _319  and  _320
REMARK  117  A    between atoms: _319  and  _322
REMARK  118  A    between atoms: _322  and  _323
REMARK  119  A    between atoms: _326  and  _328
REMARK  120  A    between atoms: _328  and  _329
REMARK  121  A    between atoms: _328  and  _331
REMARK  122  A    between atoms: _331  and  _332
REMARK  123  A    between atoms: _335  and  _337
REMARK  124  A    between atoms: _337  and  _338
REMARK  125  A    between atoms: _337  and  _340
REMARK  126  A    between atoms: _340  and  _341
REMARK  127  A    between atoms: _345  and  ZN_438
REMARK  128  A    between atoms: _346  and  _348
REMARK  129  A    between atoms: _348  and  _349
REMARK  130  A    between atoms: _352  and  _354
REMARK  131  A    between atoms: _354  and  _355
REMARK  132  A    between atoms: _357  and  _359
REMARK  133  A    between atoms: _359  and  _360
REMARK  134  A    between atoms: _359  and  _362
REMARK  135  A    between atoms: _362  and  _363
REMARK  136  A    between atoms: _366  and  _368
REMARK  137  A    between atoms: _368  and  _369
REMARK  138  A    between atoms: _368  and  _371
REMARK  139  A    between atoms: _374  and  _376
REMARK  140  A    between atoms: _376  and  _377
REMARK  141  A    between atoms: _376  and  _379
REMARK  142  A    between atoms: _379  and  _380
REMARK  143  A    between atoms: _380  and  _381
REMARK  144  A    between atoms: _381  and  _382
REMARK  145  A    between atoms: _382  and  _383
REMARK  146  A    between atoms: _387  and  _389
REMARK  147  A    between atoms: _389  and  _390
REMARK  148  A    between atoms: _389  and  _392
REMARK  149  A    between atoms: _392  and  _393
REMARK  150  A    between atoms: _396  and  _398
REMARK  151  A    between atoms: _398  and  _399
REMARK  152  A    between atoms: _398  and  _401
REMARK  153  A    between atoms: _401  and  _402
REMARK  154  A    between atoms: _405  and  _407
REMARK  155  A    between atoms: _407  and  _408
REMARK  156  A    between atoms: _411  and  _413
REMARK  157  A    between atoms: _413  and  _414
REMARK  158  A    between atoms: _413  and  _416
REMARK  159  A    between atoms: _416  and  _417
REMARK  160  A    between atoms: _422  and  _424
REMARK  161  A    between atoms: _424  and  _425
REMARK  162  A    between atoms: _424  and  _427
REMARK  163  A    between atoms: _427  and  _428
REMARK                            x       y       z     vdW  Elec       q    Type
REMARK                         _______ _______ _______ _____ _____    ______ ____
ROOT
ATOM      1  CA  MET A   1     -11.122  21.833  -3.137  0.00  0.00    +0.134 C 
ENDROOT
BRANCH   1   2
ATOM      2  N   MET A   1     -11.679  21.133  -1.983  0.00  0.00    -0.239 NA
ATOM      3  H   MET A   1     -12.705  21.170  -1.817  0.00  0.00    +0.142 HD
ENDBRANCH   1   2
BRANCH   1   4
ATOM      4  C   MET A   1     -11.385  23.343  -2.949  0.00  0.00    +0.224 C 
ATOM      5  O   MET A   1     -12.521  23.779  -2.641  0.00  0.00    -0.287 OA
ENDBRANCH   1   4
BRANCH   1   6
ATOM      6  CB  MET A   1     -11.733  21.363  -4.457  0.00  0.00    +0.037 C 
BRANCH   6   7
ATOM      7  CG  MET A   1     -11.186  22.082  -5.689  0.00  0.00    +0.059 C 
BRANCH   7   8
ATOM      8  SD  MET A   1     -12.037  21.688  -7.233  0.00  0.00    -0.139 S 
ATOM      9  CE  MET A   1     -13.708  22.121  -6.824  0.00  0.00    +0.069 C 
ENDBRANCH   7   8
ENDBRANCH   6   7
ENDBRANCH   1   6
TORSDOF 5
REMARK  Name = ../refined-set-2016/5c5t/5c5t_pocket.pdb
REMARK  163 active torsions:
REMARK  status: ('A' for Active; 'I' for Inactive)
REMARK    1  A    between atoms: _1  and  _3
REMARK    2  A    between atoms: _3  and  _4
REMARK    3  A    between atoms: _3  and  _6
REMARK    4  A    between atoms: _6  and  _7
REMARK    5  A    between atoms: _7  and  _8
REMARK    6  A    between atoms: _8  and  _9
REMARK    7  A    between atoms: _18  and  _20
REMARK    8  A    between atoms: _20  and  _21
REMARK    9  A    between atoms: _20  and  _23
REMARK   10  A    between atoms: _23  and  _24
REMARK   11  A    between atoms: _26  and  _28
REMARK   12  A    between atoms: _28  and  _29
REMARK   13  A    between atoms: _28  and  _31
REMARK   14  A    between atoms: _31  and  _32
REMARK   15  A    between atoms: _32  and  _33
REMARK   16  A    between atoms: _38  and  _40
REMARK   17  A    between atoms: _40  and  _41
REMARK   18  A    between atoms: _40  and  _43
REMARK   19  A    between atoms: _43  and  _44
REMARK   20  A    between atoms: _44  and  _45
REMARK   21  A    between atoms: _50  and  _52
REMARK   22  A    between atoms: _52  and  _53
REMARK   23  A    between atoms: _56  and  _58
REMARK   24  A    between atoms: _58  and  _59
REMARK   25  A    between atoms: _58  and  _61
REMARK   26  A    between atoms: _61  and  _62
REMARK   27  A    between atoms: _62  and  _63
REMARK   28  A    between atoms: _63  and  _64
REMARK   29  A    between atoms: _73  and  _75
REMARK   30  A    between atoms: _75  and  _76
REMARK   31  A    between atoms: _75  and  _78
REMARK   32  A    between atoms: _78  and  _79
REMARK   33  A    between atoms: _84  and  _85
REMARK   34  A    between atoms: _87  and  _89
REMARK   35  A    between atoms: _89  and  _90
REMARK   36  A    between atoms: _89  and  _92
REMARK   37  A    between atoms: _92  and  _93
REMARK   38  A    between atoms: _93  and  _94
REMARK   39  A    between atoms: _99  and  _101
REMARK   40  A    between atoms: _101  and  _102
REMARK   41  A    between atoms: _101  and  _104
REMARK   42  A    between atoms: _104  and  _105
REMARK   43  A    between atoms: _110  and  _111
REMARK   44  A    between atoms: _113  and  _115
REMARK   45  A    between atoms: _115  and  _116
REMARK   46  A    between atoms: _115  and  _118
REMARK   47  A    between atoms: _118  and  _119
REMARK   48  A    between atoms: _124  and  _125
REMARK   49  A    between atoms: _127  and  _129
REMARK   50  A    between atoms: _129  and  _130
REMARK   51  A    between atoms: _129  and  _132
REMARK   52  A    between atoms: _132  and  _133
REMARK   53  A    between atoms: _138  and  _139
REMARK   54  A    between atoms: _141  and  _143
REMARK   55  A    between atoms: _143  and  _144
REMARK   56  A    between atoms: _143  and  _146
REMARK   57  A    between atoms: _146  and  _147
REMARK   58  A    between atoms: _152  and  _154
REMARK   59  A    between atoms: _165  and  _168
REMARK   60  A    between atoms: _168  and  _169
REMARK   61  A    between atoms: _174  and  _175
REMARK   62  A    between atoms: _179  and  _180
REMARK   63  A    between atoms: _186  and  _188
REMARK   64  A    between atoms: _188  and  _189
REMARK   65  A    between atoms: _188  and  _191
REMARK   66  A    between atoms: _191  and  _192
REMARK   67  A    between atoms: _192  and  _193
REMARK   68  A    between atoms: _193  and  _194
REMARK   69  A    between atoms: _203  and  _205
REMARK   70  A    between atoms: _205  and  _206
REMARK   71  A    between atoms: _205  and  _208
REMARK   72  A    between atoms: _208  and  _209
REMARK   73  A    between atoms: _212  and  _214
REMARK   74  A    between atoms: _214  and  _215
REMARK   75  A    between atoms: _214  and  _217
REMARK   76  A    between atoms: _217  and  _218
REMARK   77  A    between atoms: _218  and  _219
REMARK   78  A    between atoms: _221  and  _223
REMARK   79  A    between atoms: _223  and  _224
REMARK   80  A    between atoms: _223  and  _226
REMARK   81  A    between atoms: _226  and  _227
REMARK   82  A    between atoms: _232  and  _233
REMARK   83  A    between atoms: _235  and  _237
REMARK   84  A    between atoms: _237  and  _238
REMARK   85  A    between atoms: _240  and  _242
REMARK   86  A    between atoms: _242  and  _243
REMARK   87  A    between atoms: _242  and  _245
REMARK   88  A    between atoms: _245  and  _246
REMARK   89  A    between atoms: _246  and  _247
REMARK   90  A    between atoms: _250  and  _252
REMARK   91  A    between atoms: _252  and  _253
REMARK   92  A    between atoms: _252  and  _255
REMARK   93  A    between atoms: _255  and  _256
REMARK   94  A    between atoms: _259  and  _261
REMARK   95  A    between atoms: _261  and  _262
REMARK   96  A    between atoms: _261  and  _264
REMARK   97  A    between atoms: _264  and  _265
REMARK   98  A    between atoms: _268  and  _270
REMARK   99  A    between atoms: _270  and  _271
REMARK  100  A    between atoms: _270  and  _273
REMARK  101  A    between atoms: _273  and  _274
REMARK  102  A    between atoms: _280  and  _282
REMARK  103  A    between atoms: _282  and  _283
REMARK  104  A    between atoms: _282  and  _285
REMARK  105  A    between atoms: _285  and  _286
REMARK  106  A    between atoms: _290  and  _291
REMARK  107  A    between atoms: _296  and  _298
REMARK  108  A    between atoms: _298  and  _299
REMARK  109  A    between atoms: _298  and  _301
REMARK  110  A    between atoms: _301  and  _302
REMARK  111  A    between atoms: _305  and  _307
REMARK  112  A    between atoms: _307  and  _308
REMARK  113  A    between atoms: _307  and  _310
REMARK  114  A    between atoms: _310  and  _311
REMARK  115  A    between atoms: _317  and  _319
REMARK  116  A    between atoms: _319  and  _320
REMARK  117  A    between atoms: _319  and  _322
REMARK  118  A    between atoms: _322  and  _323
REMARK  119  A    between atoms: _326  and  _328
REMARK  120  A    between atoms: _328  and  _329
REMARK  121  A    between atoms: _328  and  _331
REMARK  122  A    between atoms: _331  and  _332
REMARK  123  A    between atoms: _335  and  _337
REMARK  124  A    between atoms: _337  and  _338
REMARK  125  A    between atoms: _337  and  _340
REMARK  126  A    between atoms: _340  and  _341
REMARK  127  A    between atoms: _345  and  ZN_438
REMARK  128  A    between atoms: _346  and  _348
REMARK  129  A    between atoms: _348  and  _349
REMARK  130  A    between atoms: _352  and  _354
REMARK  131  A    between atoms: _354  and  _355
REMARK  132  A    between atoms: _357  and  _359
REMARK  133  A    between atoms: _359  and  _360
REMARK  134  A    between atoms: _359  and  _362
REMARK  135  A    between atoms: _362  and  _363
REMARK  136  A    between atoms: _366  and  _368
REMARK  137  A    between atoms: _368  and  _369
REMARK  138  A    between atoms: _368  and  _371
REMARK  139  A    between atoms: _374  and  _376
REMARK  140  A    between atoms: _376  and  _377
REMARK  141  A    between atoms: _376  and  _379
REMARK  142  A    between atoms: _379  and  _380
REMARK  143  A    between atoms: _380  and  _381
REMARK  144  A    between atoms: _381  and  _382
REMARK  145  A    between atoms: _382  and  _383
REMARK  146  A    between atoms: _387  and  _389
REMARK  147  A    between atoms: _389  and  _390
REMARK  148  A    between atoms: _389  and  _392
REMARK  149  A    between atoms: _392  and  _393
REMARK  150  A    between atoms: _396  and  _398
REMARK  151  A    between atoms: _398  and  _399
REMARK  152  A    between atoms: _398  and  _401
REMARK  153  A    between atoms: _401  and  _402
REMARK  154  A    between atoms: _405  and  _407
REMARK  155  A    between atoms: _407  and  _408
REMARK  156  A    between atoms: _411  and  _413
REMARK  157  A    between atoms: _413  and  _414
REMARK  158  A    between atoms: _413  and  _416
REMARK  159  A    between atoms: _416  and  _417
REMARK  160  A    between atoms: _422  and  _424
REMARK  161  A    between atoms: _424  and  _425
REMARK  162  A    between atoms: _424  and  _427
REMARK  163  A    between atoms: _427  and  _428
REMARK                            x       y       z     vdW  Elec       q    Type
REMARK                         _______ _______ _______ _____ _____    ______ ____
ROOT
ATOM      1  CG  TYR A   1     -13.338  27.471  -6.888  0.00  0.00    -0.020 A 
ATOM      2  CD2 TYR A   1     -14.492  27.358  -6.126  0.00  0.00    -0.001 A 
ATOM      3  CE2 TYR A   1     -15.452  26.383  -6.410  0.00  0.00    +0.036 A 
ATOM      4  CZ  TYR A   1     -15.257  25.538  -7.477  0.00  0.00    +0.134 A 
ATOM      5  CE1 TYR A   1     -14.135  25.648  -8.243  0.00  0.00    +0.036 A 
ATOM      6  CD1 TYR A   1     -13.170  26.625  -7.932  0.00  0.00    -0.001 A 
ENDROOT
BRANCH   4   7
ATOM      7  OH  TYR A   1     -16.233  24.592  -7.778  0.00  0.00    -0.506 OA
ATOM      8  HH  TYR A   1     -15.948  24.065  -8.566  0.00  0.00    +0.292 HD
ENDBRANCH   4   7
BRANCH   1   9
ATOM      9  CB  TYR A   1     -12.281  28.519  -6.545  0.00  0.00    +0.051 C 
BRANCH   9  10
ATOM     10  CA  TYR A   1     -10.957  27.939  -6.000  0.00  0.00    +0.137 C 
BRANCH  10  11
ATOM     11  N   TYR A   1     -11.171  27.129  -4.769  0.00  0.00    -0.239 NA
ATOM     12  H   TYR A   1     -12.041  27.258  -4.214  0.00  0.00    +0.142 HD
ENDBRANCH  10  11
BRANCH  10  13
ATOM     13  C   TYR A   1      -9.999  29.076  -5.685  0.00  0.00    +0.224 C 
ATOM     14  O   TYR A   1     -10.309  29.930  -4.839  0.00  0.00    -0.287 OA
ENDBRANCH  10  13
ENDBRANCH   9  10
ENDBRANCH   1   9
TORSDOF 5
REMARK  Name = ../refined-set-2016/5c5t/5c5t_pocket.pdb
REMARK  163 active torsions:
REMARK  status: ('A' for Active; 'I' for Inactive)
REMARK    1  A    between atoms: _1  and  _3
REMARK    2  A    between atoms: _3  and  _4
REMARK    3  A    between atoms: _3  and  _6
REMARK    4  A    between atoms: _6  and  _7
REMARK    5  A    between atoms: _7  and  _8
REMARK    6  A    between atoms: _8  and  _9
REMARK    7  A    between atoms: _18  and  _20
REMARK    8  A    between atoms: _20  and  _21
REMARK    9  A    between atoms: _20  and  _23
REMARK   10  A    between atoms: _23  and  _24
REMARK   11  A    between atoms: _26  and  _28
REMARK   12  A    between atoms: _28  and  _29
REMARK   13  A    between atoms: _28  and  _31
REMARK   14  A    between atoms: _31  and  _32
REMARK   15  A    between atoms: _32  and  _33
REMARK   16  A    between atoms: _38  and  _40
REMARK   17  A    between atoms: _40  and  _41
REMARK   18  A    between atoms: _40  and  _43
REMARK   19  A    between atoms: _43  and  _44
REMARK   20  A    between atoms: _44  and  _45
REMARK   21  A    between atoms: _50  and  _52
REMARK   22  A    between atoms: _52  and  _53
REMARK   23  A    between atoms: _56  and  _58
REMARK   24  A    between atoms: _58  and  _59
REMARK   25  A    between atoms: _58  and  _61
REMARK   26  A    between atoms: _61  and  _62
REMARK   27  A    between atoms: _62  and  _63
REMARK   28  A    between atoms: _63  and  _64
REMARK   29  A    between atoms: _73  and  _75
REMARK   30  A    between atoms: _75  and  _76
REMARK   31  A    between atoms: _75  and  _78
REMARK   32  A    between atoms: _78  and  _79
REMARK   33  A    between atoms: _84  and  _85
REMARK   34  A    between atoms: _87  and  _89
REMARK   35  A    between atoms: _89  and  _90
REMARK   36  A    between atoms: _89  and  _92
REMARK   37  A    between atoms: _92  and  _93
REMARK   38  A    between atoms: _93  and  _94
REMARK   39  A    between atoms: _99  and  _101
REMARK   40  A    between atoms: _101  and  _102
REMARK   41  A    between atoms: _101  and  _104
REMARK   42  A    between atoms: _104  and  _105
REMARK   43  A    between atoms: _110  and  _111
REMARK   44  A    between atoms: _113  and  _115
REMARK   45  A    between atoms: _115  and  _116
REMARK   46  A    between atoms: _115  and  _118
REMARK   47  A    between atoms: _118  and  _119
REMARK   48  A    between atoms: _124  and  _125
REMARK   49  A    between atoms: _127  and  _129
REMARK   50  A    between atoms: _129  and  _130
REMARK   51  A    between atoms: _129  and  _132
REMARK   52  A    between atoms: _132  and  _133
REMARK   53  A    between atoms: _138  and  _139
REMARK   54  A    between atoms: _141  and  _143
REMARK   55  A    between atoms: _143  and  _144
REMARK   56  A    between atoms: _143  and  _146
REMARK   57  A    between atoms: _146  and  _147
REMARK   58  A    between atoms: _152  and  _154
REMARK   59  A    between atoms: _165  and  _168
REMARK   60  A    between atoms: _168  and  _169
REMARK   61  A    between atoms: _174  and  _175
REMARK   62  A    between atoms: _179  and  _180
REMARK   63  A    between atoms: _186  and  _188
REMARK   64  A    between atoms: _188  and  _189
REMARK   65  A    between atoms: _188  and  _191
REMARK   66  A    between atoms: _191  and  _192
REMARK   67  A    between atoms: _192  and  _193
REMARK   68  A    between atoms: _193  and  _194
REMARK   69  A    between atoms: _203  and  _205
REMARK   70  A    between atoms: _205  and  _206
REMARK   71  A    between atoms: _205  and  _208
REMARK   72  A    between atoms: _208  and  _209
REMARK   73  A    between atoms: _212  and  _214
REMARK   74  A    between atoms: _214  and  _215
REMARK   75  A    between atoms: _214  and  _217
REMARK   76  A    between atoms: _217  and  _218
REMARK   77  A    between atoms: _218  and  _219
REMARK   78  A    between atoms: _221  and  _223
REMARK   79  A    between atoms: _223  and  _224
REMARK   80  A    between atoms: _223  and  _226
REMARK   81  A    between atoms: _226  and  _227
REMARK   82  A    between atoms: _232  and  _233
REMARK   83  A    between atoms: _235  and  _237
REMARK   84  A    between atoms: _237  and  _238
REMARK   85  A    between atoms: _240  and  _242
REMARK   86  A    between atoms: _242  and  _243
REMARK   87  A    between atoms: _242  and  _245
REMARK   88  A    between atoms: _245  and  _246
REMARK   89  A    between atoms: _246  and  _247
REMARK   90  A    between atoms: _250  and  _252
REMARK   91  A    between atoms: _252  and  _253
REMARK   92  A    between atoms: _252  and  _255
REMARK   93  A    between atoms: _255  and  _256
REMARK   94  A    between atoms: _259  and  _261
REMARK   95  A    between atoms: _261  and  _262
REMARK   96  A    between atoms: _261  and  _264
REMARK   97  A    between atoms: _264  and  _265
REMARK   98  A    between atoms: _268  and  _270
REMARK   99  A    between atoms: _270  and  _271
REMARK  100  A    between atoms: _270  and  _273
REMARK  101  A    between atoms: _273  and  _274
REMARK  102  A    between atoms: _280  and  _282
REMARK  103  A    between atoms: _282  and  _283
REMARK  104  A    between atoms: _282  and  _285
REMARK  105  A    between atoms: _285  and  _286
REMARK  106  A    between atoms: _290  and  _291
REMARK  107  A    between atoms: _296  and  _298
REMARK  108  A    between atoms: _298  and  _299
REMARK  109  A    between atoms: _298  and  _301
REMARK  110  A    between atoms: _301  and  _302
REMARK  111  A    between atoms: _305  and  _307
REMARK  112  A    between atoms: _307  and  _308
REMARK  113  A    between atoms: _307  and  _310
REMARK  114  A    between atoms: _310  and  _311
REMARK  115  A    between atoms: _317  and  _319
REMARK  116  A    between atoms: _319  and  _320
REMARK  117  A    between atoms: _319  and  _322
REMARK  118  A    between atoms: _322  and  _323
REMARK  119  A    between atoms: _326  and  _328
REMARK  120  A    between atoms: _328  and  _329
REMARK  121  A    between atoms: _328  and  _331
REMARK  122  A    between atoms: _331  and  _332
REMARK  123  A    between atoms: _335  and  _337
REMARK  124  A    between atoms: _337  and  _338
REMARK  125  A    between atoms: _337  and  _340
REMARK  126  A    between atoms: _340  and  _341
REMARK  127  A    between atoms: _345  and  ZN_438
REMARK  128  A    between atoms: _346  and  _348
REMARK  129  A    between atoms: _348  and  _349
REMARK  130  A    between atoms: _352  and  _354
REMARK  131  A    between atoms: _354  and  _355
REMARK  132  A    between atoms: _357  and  _359
REMARK  133  A    between atoms: _359  and  _360
REMARK  134  A    between atoms: _359  and  _362
REMARK  135  A    between atoms: _362  and  _363
REMARK  136  A    between atoms: _366  and  _368
REMARK  137  A    between atoms: _368  and  _369
REMARK  138  A    between atoms: _368  and  _371
REMARK  139  A    between atoms: _374  and  _376
REMARK  140  A    between atoms: _376  and  _377
REMARK  141  A    between atoms: _376  and  _379
REMARK  142  A    between atoms: _379  and  _380
REMARK  143  A    between atoms: _380  and  _381
REMARK  144  A    between atoms: _381  and  _382
REMARK  145  A    between atoms: _382  and  _383
REMARK  146  A    between atoms: _387  and  _389
REMARK  147  A    between atoms: _389  and  _390
REMARK  148  A    between atoms: _389  and  _392
REMARK  149  A    between atoms: _392  and  _393
REMARK  150  A    between atoms: _396  and  _398
REMARK  151  A    between atoms: _398  and  _399
REMARK  152  A    between atoms: _398  and  _401
REMARK  153  A    between atoms: _401  and  _402
REMARK  154  A    between atoms: _405  and  _407
REMARK  155  A    between atoms: _407  and  _408
REMARK  156  A    between atoms: _411  and  _413
REMARK  157  A    between atoms: _413  and  _414
REMARK  158  A    between atoms: _413  and  _416
REMARK  159  A    between atoms: _416  and  _417
REMARK  160  A    between atoms: _422  and  _424
REMARK  161  A    between atoms: _424  and  _425
REMARK  162  A    between atoms: _424  and  _427
REMARK  163  A    between atoms: _427  and  _428
REMARK                            x       y       z     vdW  Elec       q    Type
REMARK                         _______ _______ _______ _____ _____    ______ ____
ROOT
ATOM      1  C   THR A   3     -18.954  21.416 -11.145  0.00  0.00    +0.243 C 
ATOM      2  O   THR A   3     -19.887  21.924 -10.536  0.00  0.00    -0.273 OA
ATOM      3  N   ASP A   4     -19.078  20.334 -11.917  0.00  0.00    -0.296 N 
ATOM      4  H   ASP A   4     -18.220  19.928 -12.342  0.00  0.00    +0.150 HD
ENDROOT
BRANCH   3   5
ATOM      5  CA  ASP A   4     -20.339  19.704 -12.188  0.00  0.00    +0.160 C 
BRANCH   5   6
ATOM      6  C   ASP A   4     -20.484  18.424 -11.347  0.00  0.00    +0.241 C 
ATOM      7  N   PHE A   5     -21.627  18.279 -10.673  0.00  0.00    -0.298 N 
ATOM      8  H   PHE A   5     -22.270  19.093 -10.598  0.00  0.00    +0.150 HD
ATOM      9  O   ASP A   4     -19.554  17.598 -11.287  0.00  0.00    -0.273 OA
BRANCH   7  10
ATOM     10  CA  PHE A   5     -22.010  17.021 -10.036  0.00  0.00    +0.141 C 
BRANCH  10  11
ATOM     11  C   PHE A   5     -23.271  16.555 -10.742  0.00  0.00    +0.227 C 
ATOM     12  O   PHE A   5     -24.394  16.837 -10.301  0.00  0.00    -0.286 OA
ENDBRANCH  10  11
BRANCH  10  13
ATOM     13  CB  PHE A   5     -22.263  17.189  -8.512  0.00  0.00    +0.054 C 
BRANCH  13  14
ATOM     14  CG  PHE A   5     -21.042  17.596  -7.701  0.00  0.00    -0.020 A 
ATOM     15  CD2 PHE A   5     -20.241  16.669  -7.086  0.00  0.00    -0.004 A 
ATOM     16  CE2 PHE A   5     -19.159  17.062  -6.329  0.00  0.00    -0.000 A 
ATOM     17  CZ  PHE A   5     -18.860  18.369  -6.163  0.00  0.00    -0.000 A 
ATOM     18  CE1 PHE A   5     -19.656  19.328  -6.755  0.00  0.00    -0.000 A 
ATOM     19  CD1 PHE A   5     -20.749  18.936  -7.506  0.00  0.00    -0.004 A 
ENDBRANCH  13  14
ENDBRANCH  10  13
ENDBRANCH   7  10
ENDBRANCH   5   6
BRANCH   5  20
ATOM     20  CB  ASP A   4     -20.450  19.396 -13.693  0.00  0.00    +0.143 C 
BRANCH  20  21
ATOM     21  CG  ASP A   4     -21.838  18.940 -14.125  0.00  0.00    +0.367 C 
ATOM     22  OD2 ASP A   4     -22.829  19.227 -13.426  0.00  0.00    -0.246 OA
ATOM     23  OD1 ASP A   4     -21.954  18.268 -15.164  0.00  0.00    -0.246 OA
ENDBRANCH  20  21
ENDBRANCH   5  20
ENDBRANCH   3   5
BRANCH   1  24
ATOM     24  CA  THR A   3     -17.577  22.047 -11.069  0.00  0.00    +0.176 C 
BRANCH  24  26
ATOM     25  C   GLU A   2     -17.490  23.700 -12.853  0.00  0.00    +0.241 C 
ATOM     26  N   THR A   3     -17.721  23.406 -11.577  0.00  0.00    -0.295 N 
ATOM     27  H   THR A   3     -18.011  24.163 -10.926  0.00  0.00    +0.150 HD
ATOM     28  O   GLU A   2     -17.007  22.919 -13.674  0.00  0.00    -0.273 OA
BRANCH  25  29
ATOM     29  CA  GLU A   2     -17.968  25.095 -13.317  0.00  0.00    +0.149 C 
BRANCH  29  32
ATOM     30  C   GLY A   1     -15.976  25.844 -14.401  0.00  0.00    +0.240 C 
ATOM     31  O   GLY A   1     -15.411  25.786 -13.330  0.00  0.00    -0.274 OA
ATOM     32  N   GLU A   2     -17.268  25.555 -14.505  0.00  0.00    -0.297 N 
ATOM     33  H   GLU A   2     -17.766  25.655 -15.413  0.00  0.00    +0.150 HD
BRANCH  30  34
ATOM     34  CA  GLY A   1     -15.230  26.220 -15.665  0.00  0.00    +0.169 C 
BRANCH  34  35
ATOM     35  N   GLY A   1     -16.081  26.769 -16.707  0.00  0.00    -0.236 NA
ATOM     36  H   GLY A   1     -16.227  26.223 -17.580  0.00  0.00    +0.142 HD
ENDBRANCH  34  35
ENDBRANCH  30  34
ENDBRANCH  29  32
BRANCH  29  37
ATOM     37  CB  GLU A   2     -19.452  25.051 -13.579  0.00  0.00    +0.041 C 
BRANCH  37  38
ATOM     38  CG  GLU A   2     -20.036  26.406 -13.906  0.00  0.00    +0.116 C 
BRANCH  38  39
ATOM     39  CD  GLU A   2     -20.216  26.621 -15.385  0.00  0.00    +0.365 C 
ATOM     40  OE2 GLU A   2     -21.195  27.345 -15.706  0.00  0.00    -0.246 OA
ATOM     41  OE1 GLU A   2     -19.422  26.085 -16.225  0.00  0.00    -0.246 OA
ENDBRANCH  38  39
ENDBRANCH  37  38
ENDBRANCH  29  37
ENDBRANCH  25  29
ENDBRANCH  24  26
BRANCH  24  42
ATOM     42  CB  THR A   3     -17.063  21.995  -9.633  0.00  0.00    +0.137 C 
ATOM     43  CG2 THR A   3     -16.791  20.558  -9.177  0.00  0.00    +0.034 C 
BRANCH  42  44
ATOM     44  OG1 THR A   3     -15.864  22.762  -9.523  0.00  0.00    -0.382 OA
ATOM     45  HG1 THR A   3     -15.178  22.389 -10.131  0.00  0.00    +0.210 HD
ENDBRANCH  42  44
ENDBRANCH  24  42
ENDBRANCH   1  24
TORSDOF 19
REMARK  Name = ../refined-set-2016/5c5t/5c5t_pocket.pdb
REMARK  163 active torsions:
REMARK  status: ('A' for Active; 'I' for Inactive)
REMARK    1  A    between atoms: _1  and  _3
REMARK    2  A    between atoms: _3  and  _4
REMARK    3  A    between atoms: _3  and  _6
REMARK    4  A    between atoms: _6  and  _7
REMARK    5  A    between atoms: _7  and  _8
REMARK    6  A    between atoms: _8  and  _9
REMARK    7  A    between atoms: _18  and  _20
REMARK    8  A    between atoms: _20  and  _21
REMARK    9  A    between atoms: _20  and  _23
REMARK   10  A    between atoms: _23  and  _24
REMARK   11  A    between atoms: _26  and  _28
REMARK   12  A    between atoms: _28  and  _29
REMARK   13  A    between atoms: _28  and  _31
REMARK   14  A    between atoms: _31  and  _32
REMARK   15  A    between atoms: _32  and  _33
REMARK   16  A    between atoms: _38  and  _40
REMARK   17  A    between atoms: _40  and  _41
REMARK   18  A    between atoms: _40  and  _43
REMARK   19  A    between atoms: _43  and  _44
REMARK   20  A    between atoms: _44  and  _45
REMARK   21  A    between atoms: _50  and  _52
REMARK   22  A    between atoms: _52  and  _53
REMARK   23  A    between atoms: _56  and  _58
REMARK   24  A    between atoms: _58  and  _59
REMARK   25  A    between atoms: _58  and  _61
REMARK   26  A    between atoms: _61  and  _62
REMARK   27  A    between atoms: _62  and  _63
REMARK   28  A    between atoms: _63  and  _64
REMARK   29  A    between atoms: _73  and  _75
REMARK   30  A    between atoms: _75  and  _76
REMARK   31  A    between atoms: _75  and  _78
REMARK   32  A    between atoms: _78  and  _79
REMARK   33  A    between atoms: _84  and  _85
REMARK   34  A    between atoms: _87  and  _89
REMARK   35  A    between atoms: _89  and  _90
REMARK   36  A    between atoms: _89  and  _92
REMARK   37  A    between atoms: _92  and  _93
REMARK   38  A    between atoms: _93  and  _94
REMARK   39  A    between atoms: _99  and  _101
REMARK   40  A    between atoms: _101  and  _102
REMARK   41  A    between atoms: _101  and  _104
REMARK   42  A    between atoms: _104  and  _105
REMARK   43  A    between atoms: _110  and  _111
REMARK   44  A    between atoms: _113  and  _115
REMARK   45  A    between atoms: _115  and  _116
REMARK   46  A    between atoms: _115  and  _118
REMARK   47  A    between atoms: _118  and  _119
REMARK   48  A    between atoms: _124  and  _125
REMARK   49  A    between atoms: _127  and  _129
REMARK   50  A    between atoms: _129  and  _130
REMARK   51  A    between atoms: _129  and  _132
REMARK   52  A    between atoms: _132  and  _133
REMARK   53  A    between atoms: _138  and  _139
REMARK   54  A    between atoms: _141  and  _143
REMARK   55  A    between atoms: _143  and  _144
REMARK   56  A    between atoms: _143  and  _146
REMARK   57  A    between atoms: _146  and  _147
REMARK   58  A    between atoms: _152  and  _154
REMARK   59  A    between atoms: _165  and  _168
REMARK   60  A    between atoms: _168  and  _169
REMARK   61  A    between atoms: _174  and  _175
REMARK   62  A    between atoms: _179  and  _180
REMARK   63  A    between atoms: _186  and  _188
REMARK   64  A    between atoms: _188  and  _189
REMARK   65  A    between atoms: _188  and  _191
REMARK   66  A    between atoms: _191  and  _192
REMARK   67  A    between atoms: _192  and  _193
REMARK   68  A    between atoms: _193  and  _194
REMARK   69  A    between atoms: _203  and  _205
REMARK   70  A    between atoms: _205  and  _206
REMARK   71  A    between atoms: _205  and  _208
REMARK   72  A    between atoms: _208  and  _209
REMARK   73  A    between atoms: _212  and  _214
REMARK   74  A    between atoms: _214  and  _215
REMARK   75  A    between atoms: _214  and  _217
REMARK   76  A    between atoms: _217  and  _218
REMARK   77  A    between atoms: _218  and  _219
REMARK   78  A    between atoms: _221  and  _223
REMARK   79  A    between atoms: _223  and  _224
REMARK   80  A    between atoms: _223  and  _226
REMARK   81  A    between atoms: _226  and  _227
REMARK   82  A    between atoms: _232  and  _233
REMARK   83  A    between atoms: _235  and  _237
REMARK   84  A    between atoms: _237  and  _238
REMARK   85  A    between atoms: _240  and  _242
REMARK   86  A    between atoms: _242  and  _243
REMARK   87  A    between atoms: _242  and  _245
REMARK   88  A    between atoms: _245  and  _246
REMARK   89  A    between atoms: _246  and  _247
REMARK   90  A    between atoms: _250  and  _252
REMARK   91  A    between atoms: _252  and  _253
REMARK   92  A    between atoms: _252  and  _255
REMARK   93  A    between atoms: _255  and  _256
REMARK   94  A    between atoms: _259  and  _261
REMARK   95  A    between atoms: _261  and  _262
REMARK   96  A    between atoms: _261  and  _264
REMARK   97  A    between atoms: _264  and  _265
REMARK   98  A    between atoms: _268  and  _270
REMARK   99  A    between atoms: _270  and  _271
REMARK  100  A    between atoms: _270  and  _273
REMARK  101  A    between atoms: _273  and  _274
REMARK  102  A    between atoms: _280  and  _282
REMARK  103  A    between atoms: _282  and  _283
REMARK  104  A    between atoms: _282  and  _285
REMARK  105  A    between atoms: _285  and  _286
REMARK  106  A    between atoms: _290  and  _291
REMARK  107  A    between atoms: _296  and  _298
REMARK  108  A    between atoms: _298  and  _299
REMARK  109  A    between atoms: _298  and  _301
REMARK  110  A    between atoms: _301  and  _302
REMARK  111  A    between atoms: _305  and  _307
REMARK  112  A    between atoms: _307  and  _308
REMARK  113  A    between atoms: _307  and  _310
REMARK  114  A    between atoms: _310  and  _311
REMARK  115  A    between atoms: _317  and  _319
REMARK  116  A    between atoms: _319  and  _320
REMARK  117  A    between atoms: _319  and  _322
REMARK  118  A    between atoms: _322  and  _323
REMARK  119  A    between atoms: _326  and  _328
REMARK  120  A    between atoms: _328  and  _329
REMARK  121  A    between atoms: _328  and  _331
REMARK  122  A    between atoms: _331  and  _332
REMARK  123  A    between atoms: _335  and  _337
REMARK  124  A    between atoms: _337  and  _338
REMARK  125  A    between atoms: _337  and  _340
REMARK  126  A    between atoms: _340  and  _341
REMARK  127  A    between atoms: _345  and  ZN_438
REMARK  128  A    between atoms: _346  and  _348
REMARK  129  A    between atoms: _348  and  _349
REMARK  130  A    between atoms: _352  and  _354
REMARK  131  A    between atoms: _354  and  _355
REMARK  132  A    between atoms: _357  and  _359
REMARK  133  A    between atoms: _359  and  _360
REMARK  134  A    between atoms: _359  and  _362
REMARK  135  A    between atoms: _362  and  _363
REMARK  136  A    between atoms: _366  and  _368
REMARK  137  A    between atoms: _368  and  _369
REMARK  138  A    between atoms: _368  and  _371
REMARK  139  A    between atoms: _374  and  _376
REMARK  140  A    between atoms: _376  and  _377
REMARK  141  A    between atoms: _376  and  _379
REMARK  142  A    between atoms: _379  and  _380
REMARK  143  A    between atoms: _380  and  _381
REMARK  144  A    between atoms: _381  and  _382
REMARK  145  A    between atoms: _382  and  _383
REMARK  146  A    between atoms: _387  and  _389
REMARK  147  A    between atoms: _389  and  _390
REMARK  148  A    between atoms: _389  and  _392
REMARK  149  A    between atoms: _392  and  _393
REMARK  150  A    between atoms: _396  and  _398
REMARK  151  A    between atoms: _398  and  _399
REMARK  152  A    between atoms: _398  and  _401
REMARK  153  A    between atoms: _401  and  _402
REMARK  154  A    between atoms: _405  and  _407
REMARK  155  A    between atoms: _407  and  _408
REMARK  156  A    between atoms: _411  and  _413
REMARK  157  A    between atoms: _413  and  _414
REMARK  158  A    between atoms: _413  and  _416
REMARK  159  A    between atoms: _416  and  _417
REMARK  160  A    between atoms: _422  and  _424
REMARK  161  A    between atoms: _424  and  _425
REMARK  162  A    between atoms: _424  and  _427
REMARK  163  A    between atoms: _427  and  _428
REMARK                            x       y       z     vdW  Elec       q    Type
REMARK                         _______ _______ _______ _____ _____    ______ ____
ROOT
ATOM      1  CA  ILE A   1     -20.856  25.140  -8.621  0.00  0.00    +0.133 C 
ENDROOT
BRANCH   1   2
ATOM      2  N   ILE A   1     -21.403  24.061  -9.461  0.00  0.00    -0.239 NA
ATOM      3  H   ILE A   1     -20.796  23.241  -9.663  0.00  0.00    +0.142 HD
ENDBRANCH   1   2
BRANCH   1   4
ATOM      4  CB  ILE A   1     -20.033  24.548  -7.462  0.00  0.00    +0.023 C 
ATOM      5  CG2 ILE A   1     -19.478  25.669  -6.589  0.00  0.00    +0.002 C 
BRANCH   4   6
ATOM      6  CG1 ILE A   1     -20.796  23.451  -6.659  0.00  0.00    +0.002 C 
ATOM      7  CD1 ILE A   1     -21.971  23.922  -5.847  0.00  0.00    +0.000 C 
ENDBRANCH   4   6
ENDBRANCH   1   4
BRANCH   1   8
ATOM      8  C   ILE A   1     -19.972  26.109  -9.414  0.00  0.00    +0.224 C 
ATOM      9  O   ILE A   1     -19.023  25.691 -10.086  0.00  0.00    -0.287 OA
ENDBRANCH   1   8
TORSDOF 4
REMARK  Name = ../refined-set-2016/5c5t/5c5t_pocket.pdb
REMARK  163 active torsions:
REMARK  status: ('A' for Active; 'I' for Inactive)
REMARK    1  A    between atoms: _1  and  _3
REMARK    2  A    between atoms: _3  and  _4
REMARK    3  A    between atoms: _3  and  _6
REMARK    4  A    between atoms: _6  and  _7
REMARK    5  A    between atoms: _7  and  _8
REMARK    6  A    between atoms: _8  and  _9
REMARK    7  A    between atoms: _18  and  _20
REMARK    8  A    between atoms: _20  and  _21
REMARK    9  A    between atoms: _20  and  _23
REMARK   10  A    between atoms: _23  and  _24
REMARK   11  A    between atoms: _26  and  _28
REMARK   12  A    between atoms: _28  and  _29
REMARK   13  A    between atoms: _28  and  _31
REMARK   14  A    between atoms: _31  and  _32
REMARK   15  A    between atoms: _32  and  _33
REMARK   16  A    between atoms: _38  and  _40
REMARK   17  A    between atoms: _40  and  _41
REMARK   18  A    between atoms: _40  and  _43
REMARK   19  A    between atoms: _43  and  _44
REMARK   20  A    between atoms: _44  and  _45
REMARK   21  A    between atoms: _50  and  _52
REMARK   22  A    between atoms: _52  and  _53
REMARK   23  A    between atoms: _56  and  _58
REMARK   24  A    between atoms: _58  and  _59
REMARK   25  A    between atoms: _58  and  _61
REMARK   26  A    between atoms: _61  and  _62
REMARK   27  A    between atoms: _62  and  _63
REMARK   28  A    between atoms: _63  and  _64
REMARK   29  A    between atoms: _73  and  _75
REMARK   30  A    between atoms: _75  and  _76
REMARK   31  A    between atoms: _75  and  _78
REMARK   32  A    between atoms: _78  and  _79
REMARK   33  A    between atoms: _84  and  _85
REMARK   34  A    between atoms: _87  and  _89
REMARK   35  A    between atoms: _89  and  _90
REMARK   36  A    between atoms: _89  and  _92
REMARK   37  A    between atoms: _92  and  _93
REMARK   38  A    between atoms: _93  and  _94
REMARK   39  A    between atoms: _99  and  _101
REMARK   40  A    between atoms: _101  and  _102
REMARK   41  A    between atoms: _101  and  _104
REMARK   42  A    between atoms: _104  and  _105
REMARK   43  A    between atoms: _110  and  _111
REMARK   44  A    between atoms: _113  and  _115
REMARK   45  A    between atoms: _115  and  _116
REMARK   46  A    between atoms: _115  and  _118
REMARK   47  A    between atoms: _118  and  _119
REMARK   48  A    between atoms: _124  and  _125
REMARK   49  A    between atoms: _127  and  _129
REMARK   50  A    between atoms: _129  and  _130
REMARK   51  A    between atoms: _129  and  _132
REMARK   52  A    between atoms: _132  and  _133
REMARK   53  A    between atoms: _138  and  _139
REMARK   54  A    between atoms: _141  and  _143
REMARK   55  A    between atoms: _143  and  _144
REMARK   56  A    between atoms: _143  and  _146
REMARK   57  A    between atoms: _146  and  _147
REMARK   58  A    between atoms: _152  and  _154
REMARK   59  A    between atoms: _165  and  _168
REMARK   60  A    between atoms: _168  and  _169
REMARK   61  A    between atoms: _174  and  _175
REMARK   62  A    between atoms: _179  and  _180
REMARK   63  A    between atoms: _186  and  _188
REMARK   64  A    between atoms: _188  and  _189
REMARK   65  A    between atoms: _188  and  _191
REMARK   66  A    between atoms: _191  and  _192
REMARK   67  A    between atoms: _192  and  _193
REMARK   68  A    between atoms: _193  and  _194
REMARK   69  A    between atoms: _203  and  _205
REMARK   70  A    between atoms: _205  and  _206
REMARK   71  A    between atoms: _205  and  _208
REMARK   72  A    between atoms: _208  and  _209
REMARK   73  A    between atoms: _212  and  _214
REMARK   74  A    between atoms: _214  and  _215
REMARK   75  A    between atoms: _214  and  _217
REMARK   76  A    between atoms: _217  and  _218
REMARK   77  A    between atoms: _218  and  _219
REMARK   78  A    between atoms: _221  and  _223
REMARK   79  A    between atoms: _223  and  _224
REMARK   80  A    between atoms: _223  and  _226
REMARK   81  A    between atoms: _226  and  _227
REMARK   82  A    between atoms: _232  and  _233
REMARK   83  A    between atoms: _235  and  _237
REMARK   84  A    between atoms: _237  and  _238
REMARK   85  A    between atoms: _240  and  _242
REMARK   86  A    between atoms: _242  and  _243
REMARK   87  A    between atoms: _242  and  _245
REMARK   88  A    between atoms: _245  and  _246
REMARK   89  A    between atoms: _246  and  _247
REMARK   90  A    between atoms: _250  and  _252
REMARK   91  A    between atoms: _252  and  _253
REMARK   92  A    between atoms: _252  and  _255
REMARK   93  A    between atoms: _255  and  _256
REMARK   94  A    between atoms: _259  and  _261
REMARK   95  A    between atoms: _261  and  _262
REMARK   96  A    between atoms: _261  and  _264
REMARK   97  A    between atoms: _264  and  _265
REMARK   98  A    between atoms: _268  and  _270
REMARK   99  A    between atoms: _270  and  _271
REMARK  100  A    between atoms: _270  and  _273
REMARK  101  A    between atoms: _273  and  _274
REMARK  102  A    between atoms: _280  and  _282
REMARK  103  A    between atoms: _282  and  _283
REMARK  104  A    between atoms: _282  and  _285
REMARK  105  A    between atoms: _285  and  _286
REMARK  106  A    between atoms: _290  and  _291
REMARK  107  A    between atoms: _296  and  _298
REMARK  108  A    between atoms: _298  and  _299
REMARK  109  A    between atoms: _298  and  _301
REMARK  110  A    between atoms: _301  and  _302
REMARK  111  A    between atoms: _305  and  _307
REMARK  112  A    between atoms: _307  and  _308
REMARK  113  A    between atoms: _307  and  _310
REMARK  114  A    between atoms: _310  and  _311
REMARK  115  A    between atoms: _317  and  _319
REMARK  116  A    between atoms: _319  and  _320
REMARK  117  A    between atoms: _319  and  _322
REMARK  118  A    between atoms: _322  and  _323
REMARK  119  A    between atoms: _326  and  _328
REMARK  120  A    between atoms: _328  and  _329
REMARK  121  A    between atoms: _328  and  _331
REMARK  122  A    between atoms: _331  and  _332
REMARK  123  A    between atoms: _335  and  _337
REMARK  124  A    between atoms: _337  and  _338
REMARK  125  A    between atoms: _337  and  _340
REMARK  126  A    between atoms: _340  and  _341
REMARK  127  A    between atoms: _345  and  ZN_438
REMARK  128  A    between atoms: _346  and  _348
REMARK  129  A    between atoms: _348  and  _349
REMARK  130  A    between atoms: _352  and  _354
REMARK  131  A    between atoms: _354  and  _355
REMARK  132  A    between atoms: _357  and  _359
REMARK  133  A    between atoms: _359  and  _360
REMARK  134  A    between atoms: _359  and  _362
REMARK  135  A    between atoms: _362  and  _363
REMARK  136  A    between atoms: _366  and  _368
REMARK  137  A    between atoms: _368  and  _369
REMARK  138  A    between atoms: _368  and  _371
REMARK  139  A    between atoms: _374  and  _376
REMARK  140  A    between atoms: _376  and  _377
REMARK  141  A    between atoms: _376  and  _379
REMARK  142  A    between atoms: _379  and  _380
REMARK  143  A    between atoms: _380  and  _381
REMARK  144  A    between atoms: _381  and  _382
REMARK  145  A    between atoms: _382  and  _383
REMARK  146  A    between atoms: _387  and  _389
REMARK  147  A    between atoms: _389  and  _390
REMARK  148  A    between atoms: _389  and  _392
REMARK  149  A    between atoms: _392  and  _393
REMARK  150  A    between atoms: _396  and  _398
REMARK  151  A    between atoms: _398  and  _399
REMARK  152  A    between atoms: _398  and  _401
REMARK  153  A    between atoms: _401  and  _402
REMARK  154  A    between atoms: _405  and  _407
REMARK  155  A    between atoms: _407  and  _408
REMARK  156  A    between atoms: _411  and  _413
REMARK  157  A    between atoms: _413  and  _414
REMARK  158  A    between atoms: _413  and  _416
REMARK  159  A    between atoms: _416  and  _417
REMARK  160  A    between atoms: _422  and  _424
REMARK  161  A    between atoms: _424  and  _425
REMARK  162  A    between atoms: _424  and  _427
REMARK  163  A    between atoms: _427  and  _428
REMARK                            x       y       z     vdW  Elec       q    Type
REMARK                         _______ _______ _______ _____ _____    ______ ____
ROOT
ATOM      1  N   PRO A   1     -17.043  28.714  -9.927  0.00  0.00    -0.212 NA
ATOM      2  CA  PRO A   1     -15.842  29.106  -9.187  0.00  0.00    +0.137 C 
ATOM      3  CB  PRO A   1     -14.740  29.017 -10.215  0.00  0.00    +0.027 C 
ATOM      4  CG  PRO A   1     -15.179  27.931 -11.101  0.00  0.00    +0.021 C 
ATOM      5  CD  PRO A   1     -16.672  28.162 -11.243  0.00  0.00    +0.089 C 
ENDROOT
BRANCH   2   6
ATOM      6  C   PRO A   1     -15.945  30.497  -8.663  0.00  0.00    +0.224 C 
ATOM      7  O   PRO A   1     -16.451  31.371  -9.392  0.00  0.00    -0.287 OA
ENDBRANCH   2   6
TORSDOF 1
REMARK  Name = ../refined-set-2016/5c5t/5c5t_pocket.pdb
REMARK  163 active torsions:
REMARK  status: ('A' for Active; 'I' for Inactive)
REMARK    1  A    between atoms: _1  and  _3
REMARK    2  A    between atoms: _3  and  _4
REMARK    3  A    between atoms: _3  and  _6
REMARK    4  A    between atoms: _6  and  _7
REMARK    5  A    between atoms: _7  and  _8
REMARK    6  A    between atoms: _8  and  _9
REMARK    7  A    between atoms: _18  and  _20
REMARK    8  A    between atoms: _20  and  _21
REMARK    9  A    between atoms: _20  and  _23
REMARK   10  A    between atoms: _23  and  _24
REMARK   11  A    between atoms: _26  and  _28
REMARK   12  A    between atoms: _28  and  _29
REMARK   13  A    between atoms: _28  and  _31
REMARK   14  A    between atoms: _31  and  _32
REMARK   15  A    between atoms: _32  and  _33
REMARK   16  A    between atoms: _38  and  _40
REMARK   17  A    between atoms: _40  and  _41
REMARK   18  A    between atoms: _40  and  _43
REMARK   19  A    between atoms: _43  and  _44
REMARK   20  A    between atoms: _44  and  _45
REMARK   21  A    between atoms: _50  and  _52
REMARK   22  A    between atoms: _52  and  _53
REMARK   23  A    between atoms: _56  and  _58
REMARK   24  A    between atoms: _58  and  _59
REMARK   25  A    between atoms: _58  and  _61
REMARK   26  A    between atoms: _61  and  _62
REMARK   27  A    between atoms: _62  and  _63
REMARK   28  A    between atoms: _63  and  _64
REMARK   29  A    between atoms: _73  and  _75
REMARK   30  A    between atoms: _75  and  _76
REMARK   31  A    between atoms: _75  and  _78
REMARK   32  A    between atoms: _78  and  _79
REMARK   33  A    between atoms: _84  and  _85
REMARK   34  A    between atoms: _87  and  _89
REMARK   35  A    between atoms: _89  and  _90
REMARK   36  A    between atoms: _89  and  _92
REMARK   37  A    between atoms: _92  and  _93
REMARK   38  A    between atoms: _93  and  _94
REMARK   39  A    between atoms: _99  and  _101
REMARK   40  A    between atoms: _101  and  _102
REMARK   41  A    between atoms: _101  and  _104
REMARK   42  A    between atoms: _104  and  _105
REMARK   43  A    between atoms: _110  and  _111
REMARK   44  A    between atoms: _113  and  _115
REMARK   45  A    between atoms: _115  and  _116
REMARK   46  A    between atoms: _115  and  _118
REMARK   47  A    between atoms: _118  and  _119
REMARK   48  A    between atoms: _124  and  _125
REMARK   49  A    between atoms: _127  and  _129
REMARK   50  A    between atoms: _129  and  _130
REMARK   51  A    between atoms: _129  and  _132
REMARK   52  A    between atoms: _132  and  _133
REMARK   53  A    between atoms: _138  and  _139
REMARK   54  A    between atoms: _141  and  _143
REMARK   55  A    between atoms: _143  and  _144
REMARK   56  A    between atoms: _143  and  _146
REMARK   57  A    between atoms: _146  and  _147
REMARK   58  A    between atoms: _152  and  _154
REMARK   59  A    between atoms: _165  and  _168
REMARK   60  A    between atoms: _168  and  _169
REMARK   61  A    between atoms: _174  and  _175
REMARK   62  A    between atoms: _179  and  _180
REMARK   63  A    between atoms: _186  and  _188
REMARK   64  A    between atoms: _188  and  _189
REMARK   65  A    between atoms: _188  and  _191
REMARK   66  A    between atoms: _191  and  _192
REMARK   67  A    between atoms: _192  and  _193
REMARK   68  A    between atoms: _193  and  _194
REMARK   69  A    between atoms: _203  and  _205
REMARK   70  A    between atoms: _205  and  _206
REMARK   71  A    between atoms: _205  and  _208
REMARK   72  A    between atoms: _208  and  _209
REMARK   73  A    between atoms: _212  and  _214
REMARK   74  A    between atoms: _214  and  _215
REMARK   75  A    between atoms: _214  and  _217
REMARK   76  A    between atoms: _217  and  _218
REMARK   77  A    between atoms: _218  and  _219
REMARK   78  A    between atoms: _221  and  _223
REMARK   79  A    between atoms: _223  and  _224
REMARK   80  A    between atoms: _223  and  _226
REMARK   81  A    between atoms: _226  and  _227
REMARK   82  A    between atoms: _232  and  _233
REMARK   83  A    between atoms: _235  and  _237
REMARK   84  A    between atoms: _237  and  _238
REMARK   85  A    between atoms: _240  and  _242
REMARK   86  A    between atoms: _242  and  _243
REMARK   87  A    between atoms: _242  and  _245
REMARK   88  A    between atoms: _245  and  _246
REMARK   89  A    between atoms: _246  and  _247
REMARK   90  A    between atoms: _250  and  _252
REMARK   91  A    between atoms: _252  and  _253
REMARK   92  A    between atoms: _252  and  _255
REMARK   93  A    between atoms: _255  and  _256
REMARK   94  A    between atoms: _259  and  _261
REMARK   95  A    between atoms: _261  and  _262
REMARK   96  A    between atoms: _261  and  _264
REMARK   97  A    between atoms: _264  and  _265
REMARK   98  A    between atoms: _268  and  _270
REMARK   99  A    between atoms: _270  and  _271
REMARK  100  A    between atoms: _270  and  _273
REMARK  101  A    between atoms: _273  and  _274
REMARK  102  A    between atoms: _280  and  _282
REMARK  103  A    between atoms: _282  and  _283
REMARK  104  A    between atoms: _282  and  _285
REMARK  105  A    between atoms: _285  and  _286
REMARK  106  A    between atoms: _290  and  _291
REMARK  107  A    between atoms: _296  and  _298
REMARK  108  A    between atoms: _298  and  _299
REMARK  109  A    between atoms: _298  and  _301
REMARK  110  A    between atoms: _301  and  _302
REMARK  111  A    between atoms: _305  and  _307
REMARK  112  A    between atoms: _307  and  _308
REMARK  113  A    between atoms: _307  and  _310
REMARK  114  A    between atoms: _310  and  _311
REMARK  115  A    between atoms: _317  and  _319
REMARK  116  A    between atoms: _319  and  _320
REMARK  117  A    between atoms: _319  and  _322
REMARK  118  A    between atoms: _322  and  _323
REMARK  119  A    between atoms: _326  and  _328
REMARK  120  A    between atoms: _328  and  _329
REMARK  121  A    between atoms: _328  and  _331
REMARK  122  A    between atoms: _331  and  _332
REMARK  123  A    between atoms: _335  and  _337
REMARK  124  A    between atoms: _337  and  _338
REMARK  125  A    between atoms: _337  and  _340
REMARK  126  A    between atoms: _340  and  _341
REMARK  127  A    between atoms: _345  and  ZN_438
REMARK  128  A    between atoms: _346  and  _348
REMARK  129  A    between atoms: _348  and  _349
REMARK  130  A    between atoms: _352  and  _354
REMARK  131  A    between atoms: _354  and  _355
REMARK  132  A    between atoms: _357  and  _359
REMARK  133  A    between atoms: _359  and  _360
REMARK  134  A    between atoms: _359  and  _362
REMARK  135  A    between atoms: _362  and  _363
REMARK  136  A    between atoms: _366  and  _368
REMARK  137  A    between atoms: _368  and  _369
REMARK  138  A    between atoms: _368  and  _371
REMARK  139  A    between atoms: _374  and  _376
REMARK  140  A    between atoms: _376  and  _377
REMARK  141  A    between atoms: _376  and  _379
REMARK  142  A    between atoms: _379  and  _380
REMARK  143  A    between atoms: _380  and  _381
REMARK  144  A    between atoms: _381  and  _382
REMARK  145  A    between atoms: _382  and  _383
REMARK  146  A    between atoms: _387  and  _389
REMARK  147  A    between atoms: _389  and  _390
REMARK  148  A    between atoms: _389  and  _392
REMARK  149  A    between atoms: _392  and  _393
REMARK  150  A    between atoms: _396  and  _398
REMARK  151  A    between atoms: _398  and  _399
REMARK  152  A    between atoms: _398  and  _401
REMARK  153  A    between atoms: _401  and  _402
REMARK  154  A    between atoms: _405  and  _407
REMARK  155  A    between atoms: _407  and  _408
REMARK  156  A    between atoms: _411  and  _413
REMARK  157  A    between atoms: _413  and  _414
REMARK  158  A    between atoms: _413  and  _416
REMARK  159  A    between atoms: _416  and  _417
REMARK  160  A    between atoms: _422  and  _424
REMARK  161  A    between atoms: _424  and  _425
REMARK  162  A    between atoms: _424  and  _427
REMARK  163  A    between atoms: _427  and  _428
REMARK                            x       y       z     vdW  Elec       q    Type
REMARK                         _______ _______ _______ _____ _____    ______ ____
ROOT
ATOM      1  CA  ILE A   1     -16.218  22.827  -1.965  0.00  0.00    +0.133 C 
ENDROOT
BRANCH   1   2
ATOM      2  N   ILE A   1     -15.196  23.855  -1.853  0.00  0.00    -0.239 NA
ATOM      3  H   ILE A   1     -14.257  23.668  -2.260  0.00  0.00    +0.142 HD
ENDBRANCH   1   2
BRANCH   1   4
ATOM      4  C   ILE A   1     -15.638  21.593  -1.323  0.00  0.00    +0.224 C 
ATOM      5  O   ILE A   1     -14.575  21.118  -1.721  0.00  0.00    -0.287 OA
ENDBRANCH   1   4
BRANCH   1   6
ATOM      6  CB  ILE A   1     -16.643  22.495  -3.407  0.00  0.00    +0.023 C 
ATOM      7  CG2 ILE A   1     -17.688  21.428  -3.390  0.00  0.00    +0.002 C 
BRANCH   6   8
ATOM      8  CG1 ILE A   1     -17.197  23.704  -4.163  0.00  0.00    +0.002 C 
ATOM      9  CD1 ILE A   1     -18.494  24.279  -3.594  0.00  0.00    +0.000 C 
ENDBRANCH   6   8
ENDBRANCH   1   6
TORSDOF 4
REMARK  Name = ../refined-set-2016/5c5t/5c5t_pocket.pdb
REMARK  163 active torsions:
REMARK  status: ('A' for Active; 'I' for Inactive)
REMARK    1  A    between atoms: _1  and  _3
REMARK    2  A    between atoms: _3  and  _4
REMARK    3  A    between atoms: _3  and  _6
REMARK    4  A    between atoms: _6  and  _7
REMARK    5  A    between atoms: _7  and  _8
REMARK    6  A    between atoms: _8  and  _9
REMARK    7  A    between atoms: _18  and  _20
REMARK    8  A    between atoms: _20  and  _21
REMARK    9  A    between atoms: _20  and  _23
REMARK   10  A    between atoms: _23  and  _24
REMARK   11  A    between atoms: _26  and  _28
REMARK   12  A    between atoms: _28  and  _29
REMARK   13  A    between atoms: _28  and  _31
REMARK   14  A    between atoms: _31  and  _32
REMARK   15  A    between atoms: _32  and  _33
REMARK   16  A    between atoms: _38  and  _40
REMARK   17  A    between atoms: _40  and  _41
REMARK   18  A    between atoms: _40  and  _43
REMARK   19  A    between atoms: _43  and  _44
REMARK   20  A    between atoms: _44  and  _45
REMARK   21  A    between atoms: _50  and  _52
REMARK   22  A    between atoms: _52  and  _53
REMARK   23  A    between atoms: _56  and  _58
REMARK   24  A    between atoms: _58  and  _59
REMARK   25  A    between atoms: _58  and  _61
REMARK   26  A    between atoms: _61  and  _62
REMARK   27  A    between atoms: _62  and  _63
REMARK   28  A    between atoms: _63  and  _64
REMARK   29  A    between atoms: _73  and  _75
REMARK   30  A    between atoms: _75  and  _76
REMARK   31  A    between atoms: _75  and  _78
REMARK   32  A    between atoms: _78  and  _79
REMARK   33  A    between atoms: _84  and  _85
REMARK   34  A    between atoms: _87  and  _89
REMARK   35  A    between atoms: _89  and  _90
REMARK   36  A    between atoms: _89  and  _92
REMARK   37  A    between atoms: _92  and  _93
REMARK   38  A    between atoms: _93  and  _94
REMARK   39  A    between atoms: _99  and  _101
REMARK   40  A    between atoms: _101  and  _102
REMARK   41  A    between atoms: _101  and  _104
REMARK   42  A    between atoms: _104  and  _105
REMARK   43  A    between atoms: _110  and  _111
REMARK   44  A    between atoms: _113  and  _115
REMARK   45  A    between atoms: _115  and  _116
REMARK   46  A    between atoms: _115  and  _118
REMARK   47  A    between atoms: _118  and  _119
REMARK   48  A    between atoms: _124  and  _125
REMARK   49  A    between atoms: _127  and  _129
REMARK   50  A    between atoms: _129  and  _130
REMARK   51  A    between atoms: _129  and  _132
REMARK   52  A    between atoms: _132  and  _133
REMARK   53  A    between atoms: _138  and  _139
REMARK   54  A    between atoms: _141  and  _143
REMARK   55  A    between atoms: _143  and  _144
REMARK   56  A    between atoms: _143  and  _146
REMARK   57  A    between atoms: _146  and  _147
REMARK   58  A    between atoms: _152  and  _154
REMARK   59  A    between atoms: _165  and  _168
REMARK   60  A    between atoms: _168  and  _169
REMARK   61  A    between atoms: _174  and  _175
REMARK   62  A    between atoms: _179  and  _180
REMARK   63  A    between atoms: _186  and  _188
REMARK   64  A    between atoms: _188  and  _189
REMARK   65  A    between atoms: _188  and  _191
REMARK   66  A    between atoms: _191  and  _192
REMARK   67  A    between atoms: _192  and  _193
REMARK   68  A    between atoms: _193  and  _194
REMARK   69  A    between atoms: _203  and  _205
REMARK   70  A    between atoms: _205  and  _206
REMARK   71  A    between atoms: _205  and  _208
REMARK   72  A    between atoms: _208  and  _209
REMARK   73  A    between atoms: _212  and  _214
REMARK   74  A    between atoms: _214  and  _215
REMARK   75  A    between atoms: _214  and  _217
REMARK   76  A    between atoms: _217  and  _218
REMARK   77  A    between atoms: _218  and  _219
REMARK   78  A    between atoms: _221  and  _223
REMARK   79  A    between atoms: _223  and  _224
REMARK   80  A    between atoms: _223  and  _226
REMARK   81  A    between atoms: _226  and  _227
REMARK   82  A    between atoms: _232  and  _233
REMARK   83  A    between atoms: _235  and  _237
REMARK   84  A    between atoms: _237  and  _238
REMARK   85  A    between atoms: _240  and  _242
REMARK   86  A    between atoms: _242  and  _243
REMARK   87  A    between atoms: _242  and  _245
REMARK   88  A    between atoms: _245  and  _246
REMARK   89  A    between atoms: _246  and  _247
REMARK   90  A    between atoms: _250  and  _252
REMARK   91  A    between atoms: _252  and  _253
REMARK   92  A    between atoms: _252  and  _255
REMARK   93  A    between atoms: _255  and  _256
REMARK   94  A    between atoms: _259  and  _261
REMARK   95  A    between atoms: _261  and  _262
REMARK   96  A    between atoms: _261  and  _264
REMARK   97  A    between atoms: _264  and  _265
REMARK   98  A    between atoms: _268  and  _270
REMARK   99  A    between atoms: _270  and  _271
REMARK  100  A    between atoms: _270  and  _273
REMARK  101  A    between atoms: _273  and  _274
REMARK  102  A    between atoms: _280  and  _282
REMARK  103  A    between atoms: _282  and  _283
REMARK  104  A    between atoms: _282  and  _285
REMARK  105  A    between atoms: _285  and  _286
REMARK  106  A    between atoms: _290  and  _291
REMARK  107  A    between atoms: _296  and  _298
REMARK  108  A    between atoms: _298  and  _299
REMARK  109  A    between atoms: _298  and  _301
REMARK  110  A    between atoms: _301  and  _302
REMARK  111  A    between atoms: _305  and  _307
REMARK  112  A    between atoms: _307  and  _308
REMARK  113  A    between atoms: _307  and  _310
REMARK  114  A    between atoms: _310  and  _311
REMARK  115  A    between atoms: _317  and  _319
REMARK  116  A    between atoms: _319  and  _320
REMARK  117  A    between atoms: _319  and  _322
REMARK  118  A    between atoms: _322  and  _323
REMARK  119  A    between atoms: _326  and  _328
REMARK  120  A    between atoms: _328  and  _329
REMARK  121  A    between atoms: _328  and  _331
REMARK  122  A    between atoms: _331  and  _332
REMARK  123  A    between atoms: _335  and  _337
REMARK  124  A    between atoms: _337  and  _338
REMARK  125  A    between atoms: _337  and  _340
REMARK  126  A    between atoms: _340  and  _341
REMARK  127  A    between atoms: _345  and  ZN_438
REMARK  128  A    between atoms: _346  and  _348
REMARK  129  A    between atoms: _348  and  _349
REMARK  130  A    between atoms: _352  and  _354
REMARK  131  A    between atoms: _354  and  _355
REMARK  132  A    between atoms: _357  and  _359
REMARK  133  A    between atoms: _359  and  _360
REMARK  134  A    between atoms: _359  and  _362
REMARK  135  A    between atoms: _362  and  _363
REMARK  136  A    between atoms: _366  and  _368
REMARK  137  A    between atoms: _368  and  _369
REMARK  138  A    between atoms: _368  and  _371
REMARK  139  A    between atoms: _374  and  _376
REMARK  140  A    between atoms: _376  and  _377
REMARK  141  A    between atoms: _376  and  _379
REMARK  142  A    between atoms: _379  and  _380
REMARK  143  A    between atoms: _380  and  _381
REMARK  144  A    between atoms: _381  and  _382
REMARK  145  A    between atoms: _382  and  _383
REMARK  146  A    between atoms: _387  and  _389
REMARK  147  A    between atoms: _389  and  _390
REMARK  148  A    between atoms: _389  and  _392
REMARK  149  A    between atoms: _392  and  _393
REMARK  150  A    between atoms: _396  and  _398
REMARK  151  A    between atoms: _398  and  _399
REMARK  152  A    between atoms: _398  and  _401
REMARK  153  A    between atoms: _401  and  _402
REMARK  154  A    between atoms: _405  and  _407
REMARK  155  A    between atoms: _407  and  _408
REMARK  156  A    between atoms: _411  and  _413
REMARK  157  A    between atoms: _413  and  _414
REMARK  158  A    between atoms: _413  and  _416
REMARK  159  A    between atoms: _416  and  _417
REMARK  160  A    between atoms: _422  and  _424
REMARK  161  A    between atoms: _424  and  _425
REMARK  162  A    between atoms: _424  and  _427
REMARK  163  A    between atoms: _427  and  _428
REMARK                            x       y       z     vdW  Elec       q    Type
REMARK                         _______ _______ _______ _____ _____    ______ ____
ROOT
ATOM      1  CB  PHE A   1     -17.856  16.467  -2.438  0.00  0.00    +0.051 C 
ENDROOT
BRANCH   1   2
ATOM      2  CG  PHE A   1     -16.700  16.367  -3.420  0.00  0.00    -0.020 A 
ATOM      3  CD2 PHE A   1     -16.058  17.504  -3.890  0.00  0.00    -0.004 A 
ATOM      4  CE2 PHE A   1     -15.041  17.413  -4.835  0.00  0.00    -0.000 A 
ATOM      5  CZ  PHE A   1     -14.642  16.191  -5.318  0.00  0.00    -0.000 A 
ATOM      6  CE1 PHE A   1     -15.239  15.031  -4.841  0.00  0.00    -0.000 A 
ATOM      7  CD1 PHE A   1     -16.276  15.114  -3.944  0.00  0.00    -0.004 A 
ENDBRANCH   1   2
BRANCH   1   8
ATOM      8  CA  PHE A   1     -17.444  16.475  -0.924  0.00  0.00    +0.137 C 
BRANCH   8   9
ATOM      9  N   PHE A   1     -16.517  17.533  -0.625  0.00  0.00    -0.239 NA
ATOM     10  H   PHE A   1     -15.491  17.384  -0.707  0.00  0.00    +0.142 HD
ENDBRANCH   8   9
BRANCH   8  11
ATOM     11  C   PHE A   1     -16.922  15.110  -0.534  0.00  0.00    +0.224 C 
ATOM     12  O   PHE A   1     -15.721  14.834  -0.574  0.00  0.00    -0.287 OA
ENDBRANCH   8  11
ENDBRANCH   1   8
TORSDOF 4
REMARK  Name = ../refined-set-2016/5c5t/5c5t_pocket.pdb
REMARK  163 active torsions:
REMARK  status: ('A' for Active; 'I' for Inactive)
REMARK    1  A    between atoms: _1  and  _3
REMARK    2  A    between atoms: _3  and  _4
REMARK    3  A    between atoms: _3  and  _6
REMARK    4  A    between atoms: _6  and  _7
REMARK    5  A    between atoms: _7  and  _8
REMARK    6  A    between atoms: _8  and  _9
REMARK    7  A    between atoms: _18  and  _20
REMARK    8  A    between atoms: _20  and  _21
REMARK    9  A    between atoms: _20  and  _23
REMARK   10  A    between atoms: _23  and  _24
REMARK   11  A    between atoms: _26  and  _28
REMARK   12  A    between atoms: _28  and  _29
REMARK   13  A    between atoms: _28  and  _31
REMARK   14  A    between atoms: _31  and  _32
REMARK   15  A    between atoms: _32  and  _33
REMARK   16  A    between atoms: _38  and  _40
REMARK   17  A    between atoms: _40  and  _41
REMARK   18  A    between atoms: _40  and  _43
REMARK   19  A    between atoms: _43  and  _44
REMARK   20  A    between atoms: _44  and  _45
REMARK   21  A    between atoms: _50  and  _52
REMARK   22  A    between atoms: _52  and  _53
REMARK   23  A    between atoms: _56  and  _58
REMARK   24  A    between atoms: _58  and  _59
REMARK   25  A    between atoms: _58  and  _61
REMARK   26  A    between atoms: _61  and  _62
REMARK   27  A    between atoms: _62  and  _63
REMARK   28  A    between atoms: _63  and  _64
REMARK   29  A    between atoms: _73  and  _75
REMARK   30  A    between atoms: _75  and  _76
REMARK   31  A    between atoms: _75  and  _78
REMARK   32  A    between atoms: _78  and  _79
REMARK   33  A    between atoms: _84  and  _85
REMARK   34  A    between atoms: _87  and  _89
REMARK   35  A    between atoms: _89  and  _90
REMARK   36  A    between atoms: _89  and  _92
REMARK   37  A    between atoms: _92  and  _93
REMARK   38  A    between atoms: _93  and  _94
REMARK   39  A    between atoms: _99  and  _101
REMARK   40  A    between atoms: _101  and  _102
REMARK   41  A    between atoms: _101  and  _104
REMARK   42  A    between atoms: _104  and  _105
REMARK   43  A    between atoms: _110  and  _111
REMARK   44  A    between atoms: _113  and  _115
REMARK   45  A    between atoms: _115  and  _116
REMARK   46  A    between atoms: _115  and  _118
REMARK   47  A    between atoms: _118  and  _119
REMARK   48  A    between atoms: _124  and  _125
REMARK   49  A    between atoms: _127  and  _129
REMARK   50  A    between atoms: _129  and  _130
REMARK   51  A    between atoms: _129  and  _132
REMARK   52  A    between atoms: _132  and  _133
REMARK   53  A    between atoms: _138  and  _139
REMARK   54  A    between atoms: _141  and  _143
REMARK   55  A    between atoms: _143  and  _144
REMARK   56  A    between atoms: _143  and  _146
REMARK   57  A    between atoms: _146  and  _147
REMARK   58  A    between atoms: _152  and  _154
REMARK   59  A    between atoms: _165  and  _168
REMARK   60  A    between atoms: _168  and  _169
REMARK   61  A    between atoms: _174  and  _175
REMARK   62  A    between atoms: _179  and  _180
REMARK   63  A    between atoms: _186  and  _188
REMARK   64  A    between atoms: _188  and  _189
REMARK   65  A    between atoms: _188  and  _191
REMARK   66  A    between atoms: _191  and  _192
REMARK   67  A    between atoms: _192  and  _193
REMARK   68  A    between atoms: _193  and  _194
REMARK   69  A    between atoms: _203  and  _205
REMARK   70  A    between atoms: _205  and  _206
REMARK   71  A    between atoms: _205  and  _208
REMARK   72  A    between atoms: _208  and  _209
REMARK   73  A    between atoms: _212  and  _214
REMARK   74  A    between atoms: _214  and  _215
REMARK   75  A    between atoms: _214  and  _217
REMARK   76  A    between atoms: _217  and  _218
REMARK   77  A    between atoms: _218  and  _219
REMARK   78  A    between atoms: _221  and  _223
REMARK   79  A    between atoms: _223  and  _224
REMARK   80  A    between atoms: _223  and  _226
REMARK   81  A    between atoms: _226  and  _227
REMARK   82  A    between atoms: _232  and  _233
REMARK   83  A    between atoms: _235  and  _237
REMARK   84  A    between atoms: _237  and  _238
REMARK   85  A    between atoms: _240  and  _242
REMARK   86  A    between atoms: _242  and  _243
REMARK   87  A    between atoms: _242  and  _245
REMARK   88  A    between atoms: _245  and  _246
REMARK   89  A    between atoms: _246  and  _247
REMARK   90  A    between atoms: _250  and  _252
REMARK   91  A    between atoms: _252  and  _253
REMARK   92  A    between atoms: _252  and  _255
REMARK   93  A    between atoms: _255  and  _256
REMARK   94  A    between atoms: _259  and  _261
REMARK   95  A    between atoms: _261  and  _262
REMARK   96  A    between atoms: _261  and  _264
REMARK   97  A    between atoms: _264  and  _265
REMARK   98  A    between atoms: _268  and  _270
REMARK   99  A    between atoms: _270  and  _271
REMARK  100  A    between atoms: _270  and  _273
REMARK  101  A    between atoms: _273  and  _274
REMARK  102  A    between atoms: _280  and  _282
REMARK  103  A    between atoms: _282  and  _283
REMARK  104  A    between atoms: _282  and  _285
REMARK  105  A    between atoms: _285  and  _286
REMARK  106  A    between atoms: _290  and  _291
REMARK  107  A    between atoms: _296  and  _298
REMARK  108  A    between atoms: _298  and  _299
REMARK  109  A    between atoms: _298  and  _301
REMARK  110  A    between atoms: _301  and  _302
REMARK  111  A    between atoms: _305  and  _307
REMARK  112  A    between atoms: _307  and  _308
REMARK  113  A    between atoms: _307  and  _310
REMARK  114  A    between atoms: _310  and  _311
REMARK  115  A    between atoms: _317  and  _319
REMARK  116  A    between atoms: _319  and  _320
REMARK  117  A    between atoms: _319  and  _322
REMARK  118  A    between atoms: _322  and  _323
REMARK  119  A    between atoms: _326  and  _328
REMARK  120  A    between atoms: _328  and  _329
REMARK  121  A    between atoms: _328  and  _331
REMARK  122  A    between atoms: _331  and  _332
REMARK  123  A    between atoms: _335  and  _337
REMARK  124  A    between atoms: _337  and  _338
REMARK  125  A    between atoms: _337  and  _340
REMARK  126  A    between atoms: _340  and  _341
REMARK  127  A    between atoms: _345  and  ZN_438
REMARK  128  A    between atoms: _346  and  _348
REMARK  129  A    between atoms: _348  and  _349
REMARK  130  A    between atoms: _352  and  _354
REMARK  131  A    between atoms: _354  and  _355
REMARK  132  A    between atoms: _357  and  _359
REMARK  133  A    between atoms: _359  and  _360
REMARK  134  A    between atoms: _359  and  _362
REMARK  135  A    between atoms: _362  and  _363
REMARK  136  A    between atoms: _366  and  _368
REMARK  137  A    between atoms: _368  and  _369
REMARK  138  A    between atoms: _368  and  _371
REMARK  139  A    between atoms: _374  and  _376
REMARK  140  A    between atoms: _376  and  _377
REMARK  141  A    between atoms: _376  and  _379
REMARK  142  A    between atoms: _379  and  _380
REMARK  143  A    between atoms: _380  and  _381
REMARK  144  A    between atoms: _381  and  _382
REMARK  145  A    between atoms: _382  and  _383
REMARK  146  A    between atoms: _387  and  _389
REMARK  147  A    between atoms: _389  and  _390
REMARK  148  A    between atoms: _389  and  _392
REMARK  149  A    between atoms: _392  and  _393
REMARK  150  A    between atoms: _396  and  _398
REMARK  151  A    between atoms: _398  and  _399
REMARK  152  A    between atoms: _398  and  _401
REMARK  153  A    between atoms: _401  and  _402
REMARK  154  A    between atoms: _405  and  _407
REMARK  155  A    between atoms: _407  and  _408
REMARK  156  A    between atoms: _411  and  _413
REMARK  157  A    between atoms: _413  and  _414
REMARK  158  A    between atoms: _413  and  _416
REMARK  159  A    between atoms: _416  and  _417
REMARK  160  A    between atoms: _422  and  _424
REMARK  161  A    between atoms: _424  and  _425
REMARK  162  A    between atoms: _424  and  _427
REMARK  163  A    between atoms: _427  and  _428
REMARK                            x       y       z     vdW  Elec       q    Type
REMARK                         _______ _______ _______ _____ _____    ______ ____
ROOT
ATOM      1  CA  VAL A   1     -12.959  27.055 -19.339  0.00  0.00    +0.133 C 
ENDROOT
BRANCH   1   2
ATOM      2  CB  VAL A   1     -11.622  27.374 -18.718  0.00  0.00    +0.023 C 
ATOM      3  CG2 VAL A   1     -11.601  26.836 -17.287  0.00  0.00    +0.002 C 
ATOM      4  CG1 VAL A   1     -11.336  28.901 -18.747  0.00  0.00    +0.002 C 
ENDBRANCH   1   2
BRANCH   1   5
ATOM      5  N   VAL A   1     -13.142  25.622 -19.532  0.00  0.00    -0.239 NA
ATOM      6  H   VAL A   1     -12.305  25.009 -19.602  0.00  0.00    +0.142 HD
ENDBRANCH   1   5
BRANCH   1   7
ATOM      7  C   VAL A   1     -13.103  27.698 -20.707  0.00  0.00    +0.224 C 
ATOM      8  O   VAL A   1     -12.446  27.283 -21.657  0.00  0.00    -0.287 OA
ENDBRANCH   1   7
TORSDOF 3
REMARK  Name = ../refined-set-2016/5c5t/5c5t_pocket.pdb
REMARK  163 active torsions:
REMARK  status: ('A' for Active; 'I' for Inactive)
REMARK    1  A    between atoms: _1  and  _3
REMARK    2  A    between atoms: _3  and  _4
REMARK    3  A    between atoms: _3  and  _6
REMARK    4  A    between atoms: _6  and  _7
REMARK    5  A    between atoms: _7  and  _8
REMARK    6  A    between atoms: _8  and  _9
REMARK    7  A    between atoms: _18  and  _20
REMARK    8  A    between atoms: _20  and  _21
REMARK    9  A    between atoms: _20  and  _23
REMARK   10  A    between atoms: _23  and  _24
REMARK   11  A    between atoms: _26  and  _28
REMARK   12  A    between atoms: _28  and  _29
REMARK   13  A    between atoms: _28  and  _31
REMARK   14  A    between atoms: _31  and  _32
REMARK   15  A    between atoms: _32  and  _33
REMARK   16  A    between atoms: _38  and  _40
REMARK   17  A    between atoms: _40  and  _41
REMARK   18  A    between atoms: _40  and  _43
REMARK   19  A    between atoms: _43  and  _44
REMARK   20  A    between atoms: _44  and  _45
REMARK   21  A    between atoms: _50  and  _52
REMARK   22  A    between atoms: _52  and  _53
REMARK   23  A    between atoms: _56  and  _58
REMARK   24  A    between atoms: _58  and  _59
REMARK   25  A    between atoms: _58  and  _61
REMARK   26  A    between atoms: _61  and  _62
REMARK   27  A    between atoms: _62  and  _63
REMARK   28  A    between atoms: _63  and  _64
REMARK   29  A    between atoms: _73  and  _75
REMARK   30  A    between atoms: _75  and  _76
REMARK   31  A    between atoms: _75  and  _78
REMARK   32  A    between atoms: _78  and  _79
REMARK   33  A    between atoms: _84  and  _85
REMARK   34  A    between atoms: _87  and  _89
REMARK   35  A    between atoms: _89  and  _90
REMARK   36  A    between atoms: _89  and  _92
REMARK   37  A    between atoms: _92  and  _93
REMARK   38  A    between atoms: _93  and  _94
REMARK   39  A    between atoms: _99  and  _101
REMARK   40  A    between atoms: _101  and  _102
REMARK   41  A    between atoms: _101  and  _104
REMARK   42  A    between atoms: _104  and  _105
REMARK   43  A    between atoms: _110  and  _111
REMARK   44  A    between atoms: _113  and  _115
REMARK   45  A    between atoms: _115  and  _116
REMARK   46  A    between atoms: _115  and  _118
REMARK   47  A    between atoms: _118  and  _119
REMARK   48  A    between atoms: _124  and  _125
REMARK   49  A    between atoms: _127  and  _129
REMARK   50  A    between atoms: _129  and  _130
REMARK   51  A    between atoms: _129  and  _132
REMARK   52  A    between atoms: _132  and  _133
REMARK   53  A    between atoms: _138  and  _139
REMARK   54  A    between atoms: _141  and  _143
REMARK   55  A    between atoms: _143  and  _144
REMARK   56  A    between atoms: _143  and  _146
REMARK   57  A    between atoms: _146  and  _147
REMARK   58  A    between atoms: _152  and  _154
REMARK   59  A    between atoms: _165  and  _168
REMARK   60  A    between atoms: _168  and  _169
REMARK   61  A    between atoms: _174  and  _175
REMARK   62  A    between atoms: _179  and  _180
REMARK   63  A    between atoms: _186  and  _188
REMARK   64  A    between atoms: _188  and  _189
REMARK   65  A    between atoms: _188  and  _191
REMARK   66  A    between atoms: _191  and  _192
REMARK   67  A    between atoms: _192  and  _193
REMARK   68  A    between atoms: _193  and  _194
REMARK   69  A    between atoms: _203  and  _205
REMARK   70  A    between atoms: _205  and  _206
REMARK   71  A    between atoms: _205  and  _208
REMARK   72  A    between atoms: _208  and  _209
REMARK   73  A    between atoms: _212  and  _214
REMARK   74  A    between atoms: _214  and  _215
REMARK   75  A    between atoms: _214  and  _217
REMARK   76  A    between atoms: _217  and  _218
REMARK   77  A    between atoms: _218  and  _219
REMARK   78  A    between atoms: _221  and  _223
REMARK   79  A    between atoms: _223  and  _224
REMARK   80  A    between atoms: _223  and  _226
REMARK   81  A    between atoms: _226  and  _227
REMARK   82  A    between atoms: _232  and  _233
REMARK   83  A    between atoms: _235  and  _237
REMARK   84  A    between atoms: _237  and  _238
REMARK   85  A    between atoms: _240  and  _242
REMARK   86  A    between atoms: _242  and  _243
REMARK   87  A    between atoms: _242  and  _245
REMARK   88  A    between atoms: _245  and  _246
REMARK   89  A    between atoms: _246  and  _247
REMARK   90  A    between atoms: _250  and  _252
REMARK   91  A    between atoms: _252  and  _253
REMARK   92  A    between atoms: _252  and  _255
REMARK   93  A    between atoms: _255  and  _256
REMARK   94  A    between atoms: _259  and  _261
REMARK   95  A    between atoms: _261  and  _262
REMARK   96  A    between atoms: _261  and  _264
REMARK   97  A    between atoms: _264  and  _265
REMARK   98  A    between atoms: _268  and  _270
REMARK   99  A    between atoms: _270  and  _271
REMARK  100  A    between atoms: _270  and  _273
REMARK  101  A    between atoms: _273  and  _274
REMARK  102  A    between atoms: _280  and  _282
REMARK  103  A    between atoms: _282  and  _283
REMARK  104  A    between atoms: _282  and  _285
REMARK  105  A    between atoms: _285  and  _286
REMARK  106  A    between atoms: _290  and  _291
REMARK  107  A    between atoms: _296  and  _298
REMARK  108  A    between atoms: _298  and  _299
REMARK  109  A    between atoms: _298  and  _301
REMARK  110  A    between atoms: _301  and  _302
REMARK  111  A    between atoms: _305  and  _307
REMARK  112  A    between atoms: _307  and  _308
REMARK  113  A    between atoms: _307  and  _310
REMARK  114  A    between atoms: _310  and  _311
REMARK  115  A    between atoms: _317  and  _319
REMARK  116  A    between atoms: _319  and  _320
REMARK  117  A    between atoms: _319  and  _322
REMARK  118  A    between atoms: _322  and  _323
REMARK  119  A    between atoms: _326  and  _328
REMARK  120  A    between atoms: _328  and  _329
REMARK  121  A    between atoms: _328  and  _331
REMARK  122  A    between atoms: _331  and  _332
REMARK  123  A    between atoms: _335  and  _337
REMARK  124  A    between atoms: _337  and  _338
REMARK  125  A    between atoms: _337  and  _340
REMARK  126  A    between atoms: _340  and  _341
REMARK  127  A    between atoms: _345  and  ZN_438
REMARK  128  A    between atoms: _346  and  _348
REMARK  129  A    between atoms: _348  and  _349
REMARK  130  A    between atoms: _352  and  _354
REMARK  131  A    between atoms: _354  and  _355
REMARK  132  A    between atoms: _357  and  _359
REMARK  133  A    between atoms: _359  and  _360
REMARK  134  A    between atoms: _359  and  _362
REMARK  135  A    between atoms: _362  and  _363
REMARK  136  A    between atoms: _366  and  _368
REMARK  137  A    between atoms: _368  and  _369
REMARK  138  A    between atoms: _368  and  _371
REMARK  139  A    between atoms: _374  and  _376
REMARK  140  A    between atoms: _376  and  _377
REMARK  141  A    between atoms: _376  and  _379
REMARK  142  A    between atoms: _379  and  _380
REMARK  143  A    between atoms: _380  and  _381
REMARK  144  A    between atoms: _381  and  _382
REMARK  145  A    between atoms: _382  and  _383
REMARK  146  A    between atoms: _387  and  _389
REMARK  147  A    between atoms: _389  and  _390
REMARK  148  A    between atoms: _389  and  _392
REMARK  149  A    between atoms: _392  and  _393
REMARK  150  A    between atoms: _396  and  _398
REMARK  151  A    between atoms: _398  and  _399
REMARK  152  A    between atoms: _398  and  _401
REMARK  153  A    between atoms: _401  and  _402
REMARK  154  A    between atoms: _405  and  _407
REMARK  155  A    between atoms: _407  and  _408
REMARK  156  A    between atoms: _411  and  _413
REMARK  157  A    between atoms: _413  and  _414
REMARK  158  A    between atoms: _413  and  _416
REMARK  159  A    between atoms: _416  and  _417
REMARK  160  A    between atoms: _422  and  _424
REMARK  161  A    between atoms: _424  and  _425
REMARK  162  A    between atoms: _424  and  _427
REMARK  163  A    between atoms: _427  and  _428
REMARK                            x       y       z     vdW  Elec       q    Type
REMARK                         _______ _______ _______ _____ _____    ______ ____
ROOT
ATOM      1  C   ILE A   2      -7.483  27.095  -9.329  0.00  0.00    +0.000 C 
ATOM      2  O   ILE A   2      -8.208  27.864  -8.672  0.00  0.00    +0.000 OA
ATOM      3  N   ILE A   3      -7.236  25.816  -8.999  0.00  0.00    +0.000 N 
ATOM      4  H   ILE A   3      -6.655  25.246  -9.647  0.00  0.00    +0.000 HD
ENDROOT
BRANCH   3   5
ATOM      5  CA  ILE A   3      -7.732  25.186  -7.793  0.00  0.00    +0.000 C 
BRANCH   5   6
ATOM      6  C   ILE A   3      -6.597  24.591  -6.941  0.00  0.00    +0.000 C 
ATOM      7  N   ALA A   4      -6.891  24.416  -5.656  0.00  0.00    +0.000 N 
ATOM      8  H   ALA A   4      -7.745  24.886  -5.293  0.00  0.00    +0.000 HD
ATOM      9  O   ILE A   3      -5.487  24.283  -7.429  0.00  0.00    +0.000 OA
BRANCH   7  10
ATOM     10  CA  ALA A   4      -6.109  23.615  -4.711  0.00  0.00    +0.000 C 
ATOM     11  CB  ALA A   4      -5.618  24.471  -3.579  0.00  0.00    +0.000 C 
BRANCH  10  12
ATOM     12  C   ALA A   4      -6.939  22.433  -4.192  0.00  0.00    +0.000 C 
ATOM     13  O   ALA A   4      -8.074  22.600  -3.741  0.00  0.00    +0.000 OA
ATOM     14  N   ASN A   5      -6.407  21.225  -4.404  0.00  0.00    +0.000 N 
ATOM     15  H   ASN A   5      -5.497  21.162  -4.903  0.00  0.00    +0.000 HD
BRANCH  14  16
ATOM     16  CA  ASN A   5      -7.056  19.978  -3.961  0.00  0.00    +0.000 C 
BRANCH  16  17
ATOM     17  C   ASN A   5      -6.408  19.414  -2.745  0.00  0.00    +0.000 C 
ATOM     18  O   ASN A   5      -5.218  19.062  -2.758  0.00  0.00    +0.000 OA
ENDBRANCH  16  17
BRANCH  16  19
ATOM     19  CB  ASN A   5      -7.002  18.900  -5.065  0.00  0.00    +0.000 C 
BRANCH  19  20
ATOM     20  CG  ASN A   5      -7.965  19.151  -6.176  0.00  0.00    +0.000 C 
ATOM     21  OD1 ASN A   5      -9.145  19.314  -5.960  0.00  0.00    +0.000 OA
ATOM     22  ND2 ASN A   5      -7.460  19.113  -7.411  0.00  0.00    +0.000 N 
ATOM     23 HD21 ASN A   5      -6.439  18.971  -7.551  0.00  0.00    +0.000 HD
ATOM     24 HD22 ASN A   5      -8.087  19.226  -8.233  0.00  0.00    +0.000 HD
ENDBRANCH  19  20
ENDBRANCH  16  19
ENDBRANCH  14  16
ENDBRANCH  10  12
ENDBRANCH   7  10
ENDBRANCH   5   6
BRANCH   5  25
ATOM     25  CB  ILE A   3      -8.748  24.094  -8.175  0.00  0.00    +0.000 C 
ATOM     26  CG2 ILE A   3      -9.925  24.746  -8.890  0.00  0.00    +0.000 C 
BRANCH  25  27
ATOM     27  CG1 ILE A   3      -8.076  23.008  -8.991  0.00  0.00    +0.000 C 
ATOM     28  CD1 ILE A   3      -8.988  21.837  -9.308  0.00  0.00    +0.000 C 
ENDBRANCH  25  27
ENDBRANCH   5  25
ENDBRANCH   3   5
BRANCH   1  29
ATOM     29  CA  ILE A   2      -6.804  27.605 -10.613  0.00  0.00    +0.000 C 
BRANCH  29  31
ATOM     30  C   LYS A   1      -7.997  27.921 -12.718  0.00  0.00    +0.000 C 
ATOM     31  N   ILE A   2      -7.831  28.236 -11.444  0.00  0.00    +0.000 N 
ATOM     32  H   ILE A   2      -8.450  28.955 -11.019  0.00  0.00    +0.000 HD
ATOM     33  O   LYS A   1      -7.280  27.121 -13.325  0.00  0.00    +0.000 OA
BRANCH  30  34
ATOM     34  CA  LYS A   1      -9.158  28.612 -13.450  0.00  0.00    +0.000 C 
BRANCH  34  35
ATOM     35  N   LYS A   1      -8.618  29.210 -14.664  0.00  0.00    +0.000 NA
ATOM     36  H   LYS A   1      -8.023  28.633 -15.293  0.00  0.00    +0.000 HD
ENDBRANCH  34  35
BRANCH  34  37
ATOM     37  CB  LYS A   1     -10.276  27.610 -13.773  0.00  0.00    +0.000 C 
BRANCH  37  38
ATOM     38  CG  LYS A   1     -10.774  26.740 -12.615  0.00  0.00    +0.000 C 
BRANCH  38  39
ATOM     39  CD  LYS A   1     -11.890  25.838 -13.136  0.00  0.00    +0.000 C 
BRANCH  39  40
ATOM     40  CE  LYS A   1     -12.362  24.852 -12.086  0.00  0.00    +0.000 C 
BRANCH  40  41
ATOM     41  NZ  LYS A   1     -13.325  23.889 -12.662  0.00  0.00    +0.000 N 
ATOM     42  HZ1 LYS A   1     -13.633  23.225 -11.923  0.00  0.00    +0.000 HD
ATOM     43  HZ2 LYS A   1     -14.149  24.404 -13.032  0.00  0.00    +0.000 HD
ATOM     44  HZ3 LYS A   1     -12.868  23.363 -13.434  0.00  0.00    +0.000 HD
ENDBRANCH  40  41
ENDBRANCH  39  40
ENDBRANCH  38  39
ENDBRANCH  37  38
ENDBRANCH  34  37
ENDBRANCH  30  34
ENDBRANCH  29  31
BRANCH  29  45
ATOM     45  CB  ILE A   2      -5.636  28.564 -10.309  0.00  0.00    +0.000 C 
ATOM     46  CG2 ILE A   2      -4.552  27.803  -9.567  0.00  0.00    +0.000 C 
BRANCH  45  47
ATOM     47  CG1 ILE A   2      -5.135  29.212 -11.599  0.00  0.00    +0.000 C 
ATOM     48  CD1 ILE A   2      -3.983  30.156 -11.397  0.00  0.00    +0.000 C 
ENDBRANCH  45  47
ENDBRANCH  29  45
ENDBRANCH   1  29
TORSDOF 21
REMARK  Name = ../refined-set-2016/5c5t/5c5t_pocket.pdb
REMARK  163 active torsions:
REMARK  status: ('A' for Active; 'I' for Inactive)
REMARK    1  A    between atoms: _1  and  _3
REMARK    2  A    between atoms: _3  and  _4
REMARK    3  A    between atoms: _3  and  _6
REMARK    4  A    between atoms: _6  and  _7
REMARK    5  A    between atoms: _7  and  _8
REMARK    6  A    between atoms: _8  and  _9
REMARK    7  A    between atoms: _18  and  _20
REMARK    8  A    between atoms: _20  and  _21
REMARK    9  A    between atoms: _20  and  _23
REMARK   10  A    between atoms: _23  and  _24
REMARK   11  A    between atoms: _26  and  _28
REMARK   12  A    between atoms: _28  and  _29
REMARK   13  A    between atoms: _28  and  _31
REMARK   14  A    between atoms: _31  and  _32
REMARK   15  A    between atoms: _32  and  _33
REMARK   16  A    between atoms: _38  and  _40
REMARK   17  A    between atoms: _40  and  _41
REMARK   18  A    between atoms: _40  and  _43
REMARK   19  A    between atoms: _43  and  _44
REMARK   20  A    between atoms: _44  and  _45
REMARK   21  A    between atoms: _50  and  _52
REMARK   22  A    between atoms: _52  and  _53
REMARK   23  A    between atoms: _56  and  _58
REMARK   24  A    between atoms: _58  and  _59
REMARK   25  A    between atoms: _58  and  _61
REMARK   26  A    between atoms: _61  and  _62
REMARK   27  A    between atoms: _62  and  _63
REMARK   28  A    between atoms: _63  and  _64
REMARK   29  A    between atoms: _73  and  _75
REMARK   30  A    between atoms: _75  and  _76
REMARK   31  A    between atoms: _75  and  _78
REMARK   32  A    between atoms: _78  and  _79
REMARK   33  A    between atoms: _84  and  _85
REMARK   34  A    between atoms: _87  and  _89
REMARK   35  A    between atoms: _89  and  _90
REMARK   36  A    between atoms: _89  and  _92
REMARK   37  A    between atoms: _92  and  _93
REMARK   38  A    between atoms: _93  and  _94
REMARK   39  A    between atoms: _99  and  _101
REMARK   40  A    between atoms: _101  and  _102
REMARK   41  A    between atoms: _101  and  _104
REMARK   42  A    between atoms: _104  and  _105
REMARK   43  A    between atoms: _110  and  _111
REMARK   44  A    between atoms: _113  and  _115
REMARK   45  A    between atoms: _115  and  _116
REMARK   46  A    between atoms: _115  and  _118
REMARK   47  A    between atoms: _118  and  _119
REMARK   48  A    between atoms: _124  and  _125
REMARK   49  A    between atoms: _127  and  _129
REMARK   50  A    between atoms: _129  and  _130
REMARK   51  A    between atoms: _129  and  _132
REMARK   52  A    between atoms: _132  and  _133
REMARK   53  A    between atoms: _138  and  _139
REMARK   54  A    between atoms: _141  and  _143
REMARK   55  A    between atoms: _143  and  _144
REMARK   56  A    between atoms: _143  and  _146
REMARK   57  A    between atoms: _146  and  _147
REMARK   58  A    between atoms: _152  and  _154
REMARK   59  A    between atoms: _165  and  _168
REMARK   60  A    between atoms: _168  and  _169
REMARK   61  A    between atoms: _174  and  _175
REMARK   62  A    between atoms: _179  and  _180
REMARK   63  A    between atoms: _186  and  _188
REMARK   64  A    between atoms: _188  and  _189
REMARK   65  A    between atoms: _188  and  _191
REMARK   66  A    between atoms: _191  and  _192
REMARK   67  A    between atoms: _192  and  _193
REMARK   68  A    between atoms: _193  and  _194
REMARK   69  A    between atoms: _203  and  _205
REMARK   70  A    between atoms: _205  and  _206
REMARK   71  A    between atoms: _205  and  _208
REMARK   72  A    between atoms: _208  and  _209
REMARK   73  A    between atoms: _212  and  _214
REMARK   74  A    between atoms: _214  and  _215
REMARK   75  A    between atoms: _214  and  _217
REMARK   76  A    between atoms: _217  and  _218
REMARK   77  A    between atoms: _218  and  _219
REMARK   78  A    between atoms: _221  and  _223
REMARK   79  A    between atoms: _223  and  _224
REMARK   80  A    between atoms: _223  and  _226
REMARK   81  A    between atoms: _226  and  _227
REMARK   82  A    between atoms: _232  and  _233
REMARK   83  A    between atoms: _235  and  _237
REMARK   84  A    between atoms: _237  and  _238
REMARK   85  A    between atoms: _240  and  _242
REMARK   86  A    between atoms: _242  and  _243
REMARK   87  A    between atoms: _242  and  _245
REMARK   88  A    between atoms: _245  and  _246
REMARK   89  A    between atoms: _246  and  _247
REMARK   90  A    between atoms: _250  and  _252
REMARK   91  A    between atoms: _252  and  _253
REMARK   92  A    between atoms: _252  and  _255
REMARK   93  A    between atoms: _255  and  _256
REMARK   94  A    between atoms: _259  and  _261
REMARK   95  A    between atoms: _261  and  _262
REMARK   96  A    between atoms: _261  and  _264
REMARK   97  A    between atoms: _264  and  _265
REMARK   98  A    between atoms: _268  and  _270
REMARK   99  A    between atoms: _270  and  _271
REMARK  100  A    between atoms: _270  and  _273
REMARK  101  A    between atoms: _273  and  _274
REMARK  102  A    between atoms: _280  and  _282
REMARK  103  A    between atoms: _282  and  _283
REMARK  104  A    between atoms: _282  and  _285
REMARK  105  A    between atoms: _285  and  _286
REMARK  106  A    between atoms: _290  and  _291
REMARK  107  A    between atoms: _296  and  _298
REMARK  108  A    between atoms: _298  and  _299
REMARK  109  A    between atoms: _298  and  _301
REMARK  110  A    between atoms: _301  and  _302
REMARK  111  A    between atoms: _305  and  _307
REMARK  112  A    between atoms: _307  and  _308
REMARK  113  A    between atoms: _307  and  _310
REMARK  114  A    between atoms: _310  and  _311
REMARK  115  A    between atoms: _317  and  _319
REMARK  116  A    between atoms: _319  and  _320
REMARK  117  A    between atoms: _319  and  _322
REMARK  118  A    between atoms: _322  and  _323
REMARK  119  A    between atoms: _326  and  _328
REMARK  120  A    between atoms: _328  and  _329
REMARK  121  A    between atoms: _328  and  _331
REMARK  122  A    between atoms: _331  and  _332
REMARK  123  A    between atoms: _335  and  _337
REMARK  124  A    between atoms: _337  and  _338
REMARK  125  A    between atoms: _337  and  _340
REMARK  126  A    between atoms: _340  and  _341
REMARK  127  A    between atoms: _345  and  ZN_438
REMARK  128  A    between atoms: _346  and  _348
REMARK  129  A    between atoms: _348  and  _349
REMARK  130  A    between atoms: _352  and  _354
REMARK  131  A    between atoms: _354  and  _355
REMARK  132  A    between atoms: _357  and  _359
REMARK  133  A    between atoms: _359  and  _360
REMARK  134  A    between atoms: _359  and  _362
REMARK  135  A    between atoms: _362  and  _363
REMARK  136  A    between atoms: _366  and  _368
REMARK  137  A    between atoms: _368  and  _369
REMARK  138  A    between atoms: _368  and  _371
REMARK  139  A    between atoms: _374  and  _376
REMARK  140  A    between atoms: _376  and  _377
REMARK  141  A    between atoms: _376  and  _379
REMARK  142  A    between atoms: _379  and  _380
REMARK  143  A    between atoms: _380  and  _381
REMARK  144  A    between atoms: _381  and  _382
REMARK  145  A    between atoms: _382  and  _383
REMARK  146  A    between atoms: _387  and  _389
REMARK  147  A    between atoms: _389  and  _390
REMARK  148  A    between atoms: _389  and  _392
REMARK  149  A    between atoms: _392  and  _393
REMARK  150  A    between atoms: _396  and  _398
REMARK  151  A    between atoms: _398  and  _399
REMARK  152  A    between atoms: _398  and  _401
REMARK  153  A    between atoms: _401  and  _402
REMARK  154  A    between atoms: _405  and  _407
REMARK  155  A    between atoms: _407  and  _408
REMARK  156  A    between atoms: _411  and  _413
REMARK  157  A    between atoms: _413  and  _414
REMARK  158  A    between atoms: _413  and  _416
REMARK  159  A    between atoms: _416  and  _417
REMARK  160  A    between atoms: _422  and  _424
REMARK  161  A    between atoms: _424  and  _425
REMARK  162  A    between atoms: _424  and  _427
REMARK  163  A    between atoms: _427  and  _428
REMARK                            x       y       z     vdW  Elec       q    Type
REMARK                         _______ _______ _______ _____ _____    ______ ____
ROOT
ATOM      1  CG  TRP A   1      -7.726  14.275  -3.023  0.00  0.00    +0.000 A 
ATOM      2  CD1 TRP A   1      -9.052  14.218  -3.344  0.00  0.00    +0.000 A 
ATOM      3  NE1 TRP A   1      -9.241  14.644  -4.631  0.00  0.00    +0.000 N 
ATOM      4  HE1 TRP A   1     -10.159  14.701  -5.117  0.00  0.00    +0.000 HD
ATOM      5  CE2 TRP A   1      -8.032  14.984  -5.180  0.00  0.00    +0.000 A 
ATOM      6  CZ2 TRP A   1      -7.731  15.493  -6.470  0.00  0.00    +0.000 A 
ATOM      7  CH2 TRP A   1      -6.421  15.773  -6.762  0.00  0.00    +0.000 A 
ATOM      8  CZ3 TRP A   1      -5.406  15.543  -5.798  0.00  0.00    +0.000 A 
ATOM      9  CE3 TRP A   1      -5.712  15.059  -4.513  0.00  0.00    +0.000 A 
ATOM     10  CD2 TRP A   1      -7.052  14.765  -4.199  0.00  0.00    +0.000 A 
ENDROOT
BRANCH   1  11
ATOM     11  CB  TRP A   1      -7.122  13.911  -1.680  0.00  0.00    +0.000 C 
BRANCH  11  12
ATOM     12  CA  TRP A   1      -7.565  14.885  -0.529  0.00  0.00    +0.000 C 
BRANCH  12  13
ATOM     13  N   TRP A   1      -6.922  16.188  -0.646  0.00  0.00    +0.000 NA
ATOM     14  H   TRP A   1      -5.938  16.242  -0.978  0.00  0.00    +0.000 HD
ENDBRANCH  12  13
BRANCH  12  15
ATOM     15  C   TRP A   1      -7.307  14.313   0.878  0.00  0.00    +0.000 C 
ATOM     16  O   TRP A   1      -6.276  14.528   1.485  0.00  0.00    +0.000 OA
ENDBRANCH  12  15
ENDBRANCH  11  12
ENDBRANCH   1  11
TORSDOF 4
REMARK  Name = ../refined-set-2016/5c5t/5c5t_pocket.pdb
REMARK  163 active torsions:
REMARK  status: ('A' for Active; 'I' for Inactive)
REMARK    1  A    between atoms: _1  and  _3
REMARK    2  A    between atoms: _3  and  _4
REMARK    3  A    between atoms: _3  and  _6
REMARK    4  A    between atoms: _6  and  _7
REMARK    5  A    between atoms: _7  and  _8
REMARK    6  A    between atoms: _8  and  _9
REMARK    7  A    between atoms: _18  and  _20
REMARK    8  A    between atoms: _20  and  _21
REMARK    9  A    between atoms: _20  and  _23
REMARK   10  A    between atoms: _23  and  _24
REMARK   11  A    between atoms: _26  and  _28
REMARK   12  A    between atoms: _28  and  _29
REMARK   13  A    between atoms: _28  and  _31
REMARK   14  A    between atoms: _31  and  _32
REMARK   15  A    between atoms: _32  and  _33
REMARK   16  A    between atoms: _38  and  _40
REMARK   17  A    between atoms: _40  and  _41
REMARK   18  A    between atoms: _40  and  _43
REMARK   19  A    between atoms: _43  and  _44
REMARK   20  A    between atoms: _44  and  _45
REMARK   21  A    between atoms: _50  and  _52
REMARK   22  A    between atoms: _52  and  _53
REMARK   23  A    between atoms: _56  and  _58
REMARK   24  A    between atoms: _58  and  _59
REMARK   25  A    between atoms: _58  and  _61
REMARK   26  A    between atoms: _61  and  _62
REMARK   27  A    between atoms: _62  and  _63
REMARK   28  A    between atoms: _63  and  _64
REMARK   29  A    between atoms: _73  and  _75
REMARK   30  A    between atoms: _75  and  _76
REMARK   31  A    between atoms: _75  and  _78
REMARK   32  A    between atoms: _78  and  _79
REMARK   33  A    between atoms: _84  and  _85
REMARK   34  A    between atoms: _87  and  _89
REMARK   35  A    between atoms: _89  and  _90
REMARK   36  A    between atoms: _89  and  _92
REMARK   37  A    between atoms: _92  and  _93
REMARK   38  A    between atoms: _93  and  _94
REMARK   39  A    between atoms: _99  and  _101
REMARK   40  A    between atoms: _101  and  _102
REMARK   41  A    between atoms: _101  and  _104
REMARK   42  A    between atoms: _104  and  _105
REMARK   43  A    between atoms: _110  and  _111
REMARK   44  A    between atoms: _113  and  _115
REMARK   45  A    between atoms: _115  and  _116
REMARK   46  A    between atoms: _115  and  _118
REMARK   47  A    between atoms: _118  and  _119
REMARK   48  A    between atoms: _124  and  _125
REMARK   49  A    between atoms: _127  and  _129
REMARK   50  A    between atoms: _129  and  _130
REMARK   51  A    between atoms: _129  and  _132
REMARK   52  A    between atoms: _132  and  _133
REMARK   53  A    between atoms: _138  and  _139
REMARK   54  A    between atoms: _141  and  _143
REMARK   55  A    between atoms: _143  and  _144
REMARK   56  A    between atoms: _143  and  _146
REMARK   57  A    between atoms: _146  and  _147
REMARK   58  A    between atoms: _152  and  _154
REMARK   59  A    between atoms: _165  and  _168
REMARK   60  A    between atoms: _168  and  _169
REMARK   61  A    between atoms: _174  and  _175
REMARK   62  A    between atoms: _179  and  _180
REMARK   63  A    between atoms: _186  and  _188
REMARK   64  A    between atoms: _188  and  _189
REMARK   65  A    between atoms: _188  and  _191
REMARK   66  A    between atoms: _191  and  _192
REMARK   67  A    between atoms: _192  and  _193
REMARK   68  A    between atoms: _193  and  _194
REMARK   69  A    between atoms: _203  and  _205
REMARK   70  A    between atoms: _205  and  _206
REMARK   71  A    between atoms: _205  and  _208
REMARK   72  A    between atoms: _208  and  _209
REMARK   73  A    between atoms: _212  and  _214
REMARK   74  A    between atoms: _214  and  _215
REMARK   75  A    between atoms: _214  and  _217
REMARK   76  A    between atoms: _217  and  _218
REMARK   77  A    between atoms: _218  and  _219
REMARK   78  A    between atoms: _221  and  _223
REMARK   79  A    between atoms: _223  and  _224
REMARK   80  A    between atoms: _223  and  _226
REMARK   81  A    between atoms: _226  and  _227
REMARK   82  A    between atoms: _232  and  _233
REMARK   83  A    between atoms: _235  and  _237
REMARK   84  A    between atoms: _237  and  _238
REMARK   85  A    between atoms: _240  and  _242
REMARK   86  A    between atoms: _242  and  _243
REMARK   87  A    between atoms: _242  and  _245
REMARK   88  A    between atoms: _245  and  _246
REMARK   89  A    between atoms: _246  and  _247
REMARK   90  A    between atoms: _250  and  _252
REMARK   91  A    between atoms: _252  and  _253
REMARK   92  A    between atoms: _252  and  _255
REMARK   93  A    between atoms: _255  and  _256
REMARK   94  A    between atoms: _259  and  _261
REMARK   95  A    between atoms: _261  and  _262
REMARK   96  A    between atoms: _261  and  _264
REMARK   97  A    between atoms: _264  and  _265
REMARK   98  A    between atoms: _268  and  _270
REMARK   99  A    between atoms: _270  and  _271
REMARK  100  A    between atoms: _270  and  _273
REMARK  101  A    between atoms: _273  and  _274
REMARK  102  A    between atoms: _280  and  _282
REMARK  103  A    between atoms: _282  and  _283
REMARK  104  A    between atoms: _282  and  _285
REMARK  105  A    between atoms: _285  and  _286
REMARK  106  A    between atoms: _290  and  _291
REMARK  107  A    between atoms: _296  and  _298
REMARK  108  A    between atoms: _298  and  _299
REMARK  109  A    between atoms: _298  and  _301
REMARK  110  A    between atoms: _301  and  _302
REMARK  111  A    between atoms: _305  and  _307
REMARK  112  A    between atoms: _307  and  _308
REMARK  113  A    between atoms: _307  and  _310
REMARK  114  A    between atoms: _310  and  _311
REMARK  115  A    between atoms: _317  and  _319
REMARK  116  A    between atoms: _319  and  _320
REMARK  117  A    between atoms: _319  and  _322
REMARK  118  A    between atoms: _322  and  _323
REMARK  119  A    between atoms: _326  and  _328
REMARK  120  A    between atoms: _328  and  _329
REMARK  121  A    between atoms: _328  and  _331
REMARK  122  A    between atoms: _331  and  _332
REMARK  123  A    between atoms: _335  and  _337
REMARK  124  A    between atoms: _337  and  _338
REMARK  125  A    between atoms: _337  and  _340
REMARK  126  A    between atoms: _340  and  _341
REMARK  127  A    between atoms: _345  and  ZN_438
REMARK  128  A    between atoms: _346  and  _348
REMARK  129  A    between atoms: _348  and  _349
REMARK  130  A    between atoms: _352  and  _354
REMARK  131  A    between atoms: _354  and  _355
REMARK  132  A    between atoms: _357  and  _359
REMARK  133  A    between atoms: _359  and  _360
REMARK  134  A    between atoms: _359  and  _362
REMARK  135  A    between atoms: _362  and  _363
REMARK  136  A    between atoms: _366  and  _368
REMARK  137  A    between atoms: _368  and  _369
REMARK  138  A    between atoms: _368  and  _371
REMARK  139  A    between atoms: _374  and  _376
REMARK  140  A    between atoms: _376  and  _377
REMARK  141  A    between atoms: _376  and  _379
REMARK  142  A    between atoms: _379  and  _380
REMARK  143  A    between atoms: _380  and  _381
REMARK  144  A    between atoms: _381  and  _382
REMARK  145  A    between atoms: _382  and  _383
REMARK  146  A    between atoms: _387  and  _389
REMARK  147  A    between atoms: _389  and  _390
REMARK  148  A    between atoms: _389  and  _392
REMARK  149  A    between atoms: _392  and  _393
REMARK  150  A    between atoms: _396  and  _398
REMARK  151  A    between atoms: _398  and  _399
REMARK  152  A    between atoms: _398  and  _401
REMARK  153  A    between atoms: _401  and  _402
REMARK  154  A    between atoms: _405  and  _407
REMARK  155  A    between atoms: _407  and  _408
REMARK  156  A    between atoms: _411  and  _413
REMARK  157  A    between atoms: _413  and  _414
REMARK  158  A    between atoms: _413  and  _416
REMARK  159  A    between atoms: _416  and  _417
REMARK  160  A    between atoms: _422  and  _424
REMARK  161  A    between atoms: _424  and  _425
REMARK  162  A    between atoms: _424  and  _427
REMARK  163  A    between atoms: _427  and  _428
REMARK                            x       y       z     vdW  Elec       q    Type
REMARK                         _______ _______ _______ _____ _____    ______ ____
ROOT
ATOM      1  O   HOH     1     -11.346  12.060 -16.258  0.00  0.00    +0.000 OA
ENDROOT
TORSDOF 0
REMARK  Name = ../refined-set-2016/5c5t/5c5t_pocket.pdb
REMARK  163 active torsions:
REMARK  status: ('A' for Active; 'I' for Inactive)
REMARK    1  A    between atoms: _1  and  _3
REMARK    2  A    between atoms: _3  and  _4
REMARK    3  A    between atoms: _3  and  _6
REMARK    4  A    between atoms: _6  and  _7
REMARK    5  A    between atoms: _7  and  _8
REMARK    6  A    between atoms: _8  and  _9
REMARK    7  A    between atoms: _18  and  _20
REMARK    8  A    between atoms: _20  and  _21
REMARK    9  A    between atoms: _20  and  _23
REMARK   10  A    between atoms: _23  and  _24
REMARK   11  A    between atoms: _26  and  _28
REMARK   12  A    between atoms: _28  and  _29
REMARK   13  A    between atoms: _28  and  _31
REMARK   14  A    between atoms: _31  and  _32
REMARK   15  A    between atoms: _32  and  _33
REMARK   16  A    between atoms: _38  and  _40
REMARK   17  A    between atoms: _40  and  _41
REMARK   18  A    between atoms: _40  and  _43
REMARK   19  A    between atoms: _43  and  _44
REMARK   20  A    between atoms: _44  and  _45
REMARK   21  A    between atoms: _50  and  _52
REMARK   22  A    between atoms: _52  and  _53
REMARK   23  A    between atoms: _56  and  _58
REMARK   24  A    between atoms: _58  and  _59
REMARK   25  A    between atoms: _58  and  _61
REMARK   26  A    between atoms: _61  and  _62
REMARK   27  A    between atoms: _62  and  _63
REMARK   28  A    between atoms: _63  and  _64
REMARK   29  A    between atoms: _73  and  _75
REMARK   30  A    between atoms: _75  and  _76
REMARK   31  A    between atoms: _75  and  _78
REMARK   32  A    between atoms: _78  and  _79
REMARK   33  A    between atoms: _84  and  _85
REMARK   34  A    between atoms: _87  and  _89
REMARK   35  A    between atoms: _89  and  _90
REMARK   36  A    between atoms: _89  and  _92
REMARK   37  A    between atoms: _92  and  _93
REMARK   38  A    between atoms: _93  and  _94
REMARK   39  A    between atoms: _99  and  _101
REMARK   40  A    between atoms: _101  and  _102
REMARK   41  A    between atoms: _101  and  _104
REMARK   42  A    between atoms: _104  and  _105
REMARK   43  A    between atoms: _110  and  _111
REMARK   44  A    between atoms: _113  and  _115
REMARK   45  A    between atoms: _115  and  _116
REMARK   46  A    between atoms: _115  and  _118
REMARK   47  A    between atoms: _118  and  _119
REMARK   48  A    between atoms: _124  and  _125
REMARK   49  A    between atoms: _127  and  _129
REMARK   50  A    between atoms: _129  and  _130
REMARK   51  A    between atoms: _129  and  _132
REMARK   52  A    between atoms: _132  and  _133
REMARK   53  A    between atoms: _138  and  _139
REMARK   54  A    between atoms: _141  and  _143
REMARK   55  A    between atoms: _143  and  _144
REMARK   56  A    between atoms: _143  and  _146
REMARK   57  A    between atoms: _146  and  _147
REMARK   58  A    between atoms: _152  and  _154
REMARK   59  A    between atoms: _165  and  _168
REMARK   60  A    between atoms: _168  and  _169
REMARK   61  A    between atoms: _174  and  _175
REMARK   62  A    between atoms: _179  and  _180
REMARK   63  A    between atoms: _186  and  _188
REMARK   64  A    between atoms: _188  and  _189
REMARK   65  A    between atoms: _188  and  _191
REMARK   66  A    between atoms: _191  and  _192
REMARK   67  A    between atoms: _192  and  _193
REMARK   68  A    between atoms: _193  and  _194
REMARK   69  A    between atoms: _203  and  _205
REMARK   70  A    between atoms: _205  and  _206
REMARK   71  A    between atoms: _205  and  _208
REMARK   72  A    between atoms: _208  and  _209
REMARK   73  A    between atoms: _212  and  _214
REMARK   74  A    between atoms: _214  and  _215
REMARK   75  A    between atoms: _214  and  _217
REMARK   76  A    between atoms: _217  and  _218
REMARK   77  A    between atoms: _218  and  _219
REMARK   78  A    between atoms: _221  and  _223
REMARK   79  A    between atoms: _223  and  _224
REMARK   80  A    between atoms: _223  and  _226
REMARK   81  A    between atoms: _226  and  _227
REMARK   82  A    between atoms: _232  and  _233
REMARK   83  A    between atoms: _235  and  _237
REMARK   84  A    between atoms: _237  and  _238
REMARK   85  A    between atoms: _240  and  _242
REMARK   86  A    between atoms: _242  and  _243
REMARK   87  A    between atoms: _242  and  _245
REMARK   88  A    between atoms: _245  and  _246
REMARK   89  A    between atoms: _246  and  _247
REMARK   90  A    between atoms: _250  and  _252
REMARK   91  A    between atoms: _252  and  _253
REMARK   92  A    between atoms: _252  and  _255
REMARK   93  A    between atoms: _255  and  _256
REMARK   94  A    between atoms: _259  and  _261
REMARK   95  A    between atoms: _261  and  _262
REMARK   96  A    between atoms: _261  and  _264
REMARK   97  A    between atoms: _264  and  _265
REMARK   98  A    between atoms: _268  and  _270
REMARK   99  A    between atoms: _270  and  _271
REMARK  100  A    between atoms: _270  and  _273
REMARK  101  A    between atoms: _273  and  _274
REMARK  102  A    between atoms: _280  and  _282
REMARK  103  A    between atoms: _282  and  _283
REMARK  104  A    between atoms: _282  and  _285
REMARK  105  A    between atoms: _285  and  _286
REMARK  106  A    between atoms: _290  and  _291
REMARK  107  A    between atoms: _296  and  _298
REMARK  108  A    between atoms: _298  and  _299
REMARK  109  A    between atoms: _298  and  _301
REMARK  110  A    between atoms: _301  and  _302
REMARK  111  A    between atoms: _305  and  _307
REMARK  112  A    between atoms: _307  and  _308
REMARK  113  A    between atoms: _307  and  _310
REMARK  114  A    between atoms: _310  and  _311
REMARK  115  A    between atoms: _317  and  _319
REMARK  116  A    between atoms: _319  and  _320
REMARK  117  A    between atoms: _319  and  _322
REMARK  118  A    between atoms: _322  and  _323
REMARK  119  A    between atoms: _326  and  _328
REMARK  120  A    between atoms: _328  and  _329
REMARK  121  A    between atoms: _328  and  _331
REMARK  122  A    between atoms: _331  and  _332
REMARK  123  A    between atoms: _335  and  _337
REMARK  124  A    between atoms: _337  and  _338
REMARK  125  A    between atoms: _337  and  _340
REMARK  126  A    between atoms: _340  and  _341
REMARK  127  A    between atoms: _345  and  ZN_438
REMARK  128  A    between atoms: _346  and  _348
REMARK  129  A    between atoms: _348  and  _349
REMARK  130  A    between atoms: _352  and  _354
REMARK  131  A    between atoms: _354  and  _355
REMARK  132  A    between atoms: _357  and  _359
REMARK  133  A    between atoms: _359  and  _360
REMARK  134  A    between atoms: _359  and  _362
REMARK  135  A    between atoms: _362  and  _363
REMARK  136  A    between atoms: _366  and  _368
REMARK  137  A    between atoms: _368  and  _369
REMARK  138  A    between atoms: _368  and  _371
REMARK  139  A    between atoms: _374  and  _376
REMARK  140  A    between atoms: _376  and  _377
REMARK  141  A    between atoms: _376  and  _379
REMARK  142  A    between atoms: _379  and  _380
REMARK  143  A    between atoms: _380  and  _381
REMARK  144  A    between atoms: _381  and  _382
REMARK  145  A    between atoms: _382  and  _383
REMARK  146  A    between atoms: _387  and  _389
REMARK  147  A    between atoms: _389  and  _390
REMARK  148  A    between atoms: _389  and  _392
REMARK  149  A    between atoms: _392  and  _393
REMARK  150  A    between atoms: _396  and  _398
REMARK  151  A    between atoms: _398  and  _399
REMARK  152  A    between atoms: _398  and  _401
REMARK  153  A    between atoms: _401  and  _402
REMARK  154  A    between atoms: _405  and  _407
REMARK  155  A    between atoms: _407  and  _408
REMARK  156  A    between atoms: _411  and  _413
REMARK  157  A    between atoms: _413  and  _414
REMARK  158  A    between atoms: _413  and  _416
REMARK  159  A    between atoms: _416  and  _417
REMARK  160  A    between atoms: _422  and  _424
REMARK  161  A    between atoms: _424  and  _425
REMARK  162  A    between atoms: _424  and  _427
REMARK  163  A    between atoms: _427  and  _428
REMARK                            x       y       z     vdW  Elec       q    Type
REMARK                         _______ _______ _______ _____ _____    ______ ____
ROOT
ATOM      1  O   HOH     1      -9.694   9.844  -9.582  0.00  0.00    +0.000 OA
ENDROOT
TORSDOF 0
REMARK  Name = ../refined-set-2016/5c5t/5c5t_pocket.pdb
REMARK  163 active torsions:
REMARK  status: ('A' for Active; 'I' for Inactive)
REMARK    1  A    between atoms: _1  and  _3
REMARK    2  A    between atoms: _3  and  _4
REMARK    3  A    between atoms: _3  and  _6
REMARK    4  A    between atoms: _6  and  _7
REMARK    5  A    between atoms: _7  and  _8
REMARK    6  A    between atoms: _8  and  _9
REMARK    7  A    between atoms: _18  and  _20
REMARK    8  A    between atoms: _20  and  _21
REMARK    9  A    between atoms: _20  and  _23
REMARK   10  A    between atoms: _23  and  _24
REMARK   11  A    between atoms: _26  and  _28
REMARK   12  A    between atoms: _28  and  _29
REMARK   13  A    between atoms: _28  and  _31
REMARK   14  A    between atoms: _31  and  _32
REMARK   15  A    between atoms: _32  and  _33
REMARK   16  A    between atoms: _38  and  _40
REMARK   17  A    between atoms: _40  and  _41
REMARK   18  A    between atoms: _40  and  _43
REMARK   19  A    between atoms: _43  and  _44
REMARK   20  A    between atoms: _44  and  _45
REMARK   21  A    between atoms: _50  and  _52
REMARK   22  A    between atoms: _52  and  _53
REMARK   23  A    between atoms: _56  and  _58
REMARK   24  A    between atoms: _58  and  _59
REMARK   25  A    between atoms: _58  and  _61
REMARK   26  A    between atoms: _61  and  _62
REMARK   27  A    between atoms: _62  and  _63
REMARK   28  A    between atoms: _63  and  _64
REMARK   29  A    between atoms: _73  and  _75
REMARK   30  A    between atoms: _75  and  _76
REMARK   31  A    between atoms: _75  and  _78
REMARK   32  A    between atoms: _78  and  _79
REMARK   33  A    between atoms: _84  and  _85
REMARK   34  A    between atoms: _87  and  _89
REMARK   35  A    between atoms: _89  and  _90
REMARK   36  A    between atoms: _89  and  _92
REMARK   37  A    between atoms: _92  and  _93
REMARK   38  A    between atoms: _93  and  _94
REMARK   39  A    between atoms: _99  and  _101
REMARK   40  A    between atoms: _101  and  _102
REMARK   41  A    between atoms: _101  and  _104
REMARK   42  A    between atoms: _104  and  _105
REMARK   43  A    between atoms: _110  and  _111
REMARK   44  A    between atoms: _113  and  _115
REMARK   45  A    between atoms: _115  and  _116
REMARK   46  A    between atoms: _115  and  _118
REMARK   47  A    between atoms: _118  and  _119
REMARK   48  A    between atoms: _124  and  _125
REMARK   49  A    between atoms: _127  and  _129
REMARK   50  A    between atoms: _129  and  _130
REMARK   51  A    between atoms: _129  and  _132
REMARK   52  A    between atoms: _132  and  _133
REMARK   53  A    between atoms: _138  and  _139
REMARK   54  A    between atoms: _141  and  _143
REMARK   55  A    between atoms: _143  and  _144
REMARK   56  A    between atoms: _143  and  _146
REMARK   57  A    between atoms: _146  and  _147
REMARK   58  A    between atoms: _152  and  _154
REMARK   59  A    between atoms: _165  and  _168
REMARK   60  A    between atoms: _168  and  _169
REMARK   61  A    between atoms: _174  and  _175
REMARK   62  A    between atoms: _179  and  _180
REMARK   63  A    between atoms: _186  and  _188
REMARK   64  A    between atoms: _188  and  _189
REMARK   65  A    between atoms: _188  and  _191
REMARK   66  A    between atoms: _191  and  _192
REMARK   67  A    between atoms: _192  and  _193
REMARK   68  A    between atoms: _193  and  _194
REMARK   69  A    between atoms: _203  and  _205
REMARK   70  A    between atoms: _205  and  _206
REMARK   71  A    between atoms: _205  and  _208
REMARK   72  A    between atoms: _208  and  _209
REMARK   73  A    between atoms: _212  and  _214
REMARK   74  A    between atoms: _214  and  _215
REMARK   75  A    between atoms: _214  and  _217
REMARK   76  A    between atoms: _217  and  _218
REMARK   77  A    between atoms: _218  and  _219
REMARK   78  A    between atoms: _221  and  _223
REMARK   79  A    between atoms: _223  and  _224
REMARK   80  A    between atoms: _223  and  _226
REMARK   81  A    between atoms: _226  and  _227
REMARK   82  A    between atoms: _232  and  _233
REMARK   83  A    between atoms: _235  and  _237
REMARK   84  A    between atoms: _237  and  _238
REMARK   85  A    between atoms: _240  and  _242
REMARK   86  A    between atoms: _242  and  _243
REMARK   87  A    between atoms: _242  and  _245
REMARK   88  A    between atoms: _245  and  _246
REMARK   89  A    between atoms: _246  and  _247
REMARK   90  A    between atoms: _250  and  _252
REMARK   91  A    between atoms: _252  and  _253
REMARK   92  A    between atoms: _252  and  _255
REMARK   93  A    between atoms: _255  and  _256
REMARK   94  A    between atoms: _259  and  _261
REMARK   95  A    between atoms: _261  and  _262
REMARK   96  A    between atoms: _261  and  _264
REMARK   97  A    between atoms: _264  and  _265
REMARK   98  A    between atoms: _268  and  _270
REMARK   99  A    between atoms: _270  and  _271
REMARK  100  A    between atoms: _270  and  _273
REMARK  101  A    between atoms: _273  and  _274
REMARK  102  A    between atoms: _280  and  _282
REMARK  103  A    between atoms: _282  and  _283
REMARK  104  A    between atoms: _282  and  _285
REMARK  105  A    between atoms: _285  and  _286
REMARK  106  A    between atoms: _290  and  _291
REMARK  107  A    between atoms: _296  and  _298
REMARK  108  A    between atoms: _298  and  _299
REMARK  109  A    between atoms: _298  and  _301
REMARK  110  A    between atoms: _301  and  _302
REMARK  111  A    between atoms: _305  and  _307
REMARK  112  A    between atoms: _307  and  _308
REMARK  113  A    between atoms: _307  and  _310
REMARK  114  A    between atoms: _310  and  _311
REMARK  115  A    between atoms: _317  and  _319
REMARK  116  A    between atoms: _319  and  _320
REMARK  117  A    between atoms: _319  and  _322
REMARK  118  A    between atoms: _322  and  _323
REMARK  119  A    between atoms: _326  and  _328
REMARK  120  A    between atoms: _328  and  _329
REMARK  121  A    between atoms: _328  and  _331
REMARK  122  A    between atoms: _331  and  _332
REMARK  123  A    between atoms: _335  and  _337
REMARK  124  A    between atoms: _337  and  _338
REMARK  125  A    between atoms: _337  and  _340
REMARK  126  A    between atoms: _340  and  _341
REMARK  127  A    between atoms: _345  and  ZN_438
REMARK  128  A    between atoms: _346  and  _348
REMARK  129  A    between atoms: _348  and  _349
REMARK  130  A    between atoms: _352  and  _354
REMARK  131  A    between atoms: _354  and  _355
REMARK  132  A    between atoms: _357  and  _359
REMARK  133  A    between atoms: _359  and  _360
REMARK  134  A    between atoms: _359  and  _362
REMARK  135  A    between atoms: _362  and  _363
REMARK  136  A    between atoms: _366  and  _368
REMARK  137  A    between atoms: _368  and  _369
REMARK  138  A    between atoms: _368  and  _371
REMARK  139  A    between atoms: _374  and  _376
REMARK  140  A    between atoms: _376  and  _377
REMARK  141  A    between atoms: _376  and  _379
REMARK  142  A    between atoms: _379  and  _380
REMARK  143  A    between atoms: _380  and  _381
REMARK  144  A    between atoms: _381  and  _382
REMARK  145  A    between atoms: _382  and  _383
REMARK  146  A    between atoms: _387  and  _389
REMARK  147  A    between atoms: _389  and  _390
REMARK  148  A    between atoms: _389  and  _392
REMARK  149  A    between atoms: _392  and  _393
REMARK  150  A    between atoms: _396  and  _398
REMARK  151  A    between atoms: _398  and  _399
REMARK  152  A    between atoms: _398  and  _401
REMARK  153  A    between atoms: _401  and  _402
REMARK  154  A    between atoms: _405  and  _407
REMARK  155  A    between atoms: _407  and  _408
REMARK  156  A    between atoms: _411  and  _413
REMARK  157  A    between atoms: _413  and  _414
REMARK  158  A    between atoms: _413  and  _416
REMARK  159  A    between atoms: _416  and  _417
REMARK  160  A    between atoms: _422  and  _424
REMARK  161  A    between atoms: _424  and  _425
REMARK  162  A    between atoms: _424  and  _427
REMARK  163  A    between atoms: _427  and  _428
REMARK                            x       y       z     vdW  Elec       q    Type
REMARK                         _______ _______ _______ _____ _____    ______ ____
ROOT
ATOM      1  O   HOH     1      -8.093  14.067  -9.880  0.00  0.00    +0.000 OA
ENDROOT
TORSDOF 0
REMARK  Name = ../refined-set-2016/5c5t/5c5t_pocket.pdb
REMARK  163 active torsions:
REMARK  status: ('A' for Active; 'I' for Inactive)
REMARK    1  A    between atoms: _1  and  _3
REMARK    2  A    between atoms: _3  and  _4
REMARK    3  A    between atoms: _3  and  _6
REMARK    4  A    between atoms: _6  and  _7
REMARK    5  A    between atoms: _7  and  _8
REMARK    6  A    between atoms: _8  and  _9
REMARK    7  A    between atoms: _18  and  _20
REMARK    8  A    between atoms: _20  and  _21
REMARK    9  A    between atoms: _20  and  _23
REMARK   10  A    between atoms: _23  and  _24
REMARK   11  A    between atoms: _26  and  _28
REMARK   12  A    between atoms: _28  and  _29
REMARK   13  A    between atoms: _28  and  _31
REMARK   14  A    between atoms: _31  and  _32
REMARK   15  A    between atoms: _32  and  _33
REMARK   16  A    between atoms: _38  and  _40
REMARK   17  A    between atoms: _40  and  _41
REMARK   18  A    between atoms: _40  and  _43
REMARK   19  A    between atoms: _43  and  _44
REMARK   20  A    between atoms: _44  and  _45
REMARK   21  A    between atoms: _50  and  _52
REMARK   22  A    between atoms: _52  and  _53
REMARK   23  A    between atoms: _56  and  _58
REMARK   24  A    between atoms: _58  and  _59
REMARK   25  A    between atoms: _58  and  _61
REMARK   26  A    between atoms: _61  and  _62
REMARK   27  A    between atoms: _62  and  _63
REMARK   28  A    between atoms: _63  and  _64
REMARK   29  A    between atoms: _73  and  _75
REMARK   30  A    between atoms: _75  and  _76
REMARK   31  A    between atoms: _75  and  _78
REMARK   32  A    between atoms: _78  and  _79
REMARK   33  A    between atoms: _84  and  _85
REMARK   34  A    between atoms: _87  and  _89
REMARK   35  A    between atoms: _89  and  _90
REMARK   36  A    between atoms: _89  and  _92
REMARK   37  A    between atoms: _92  and  _93
REMARK   38  A    between atoms: _93  and  _94
REMARK   39  A    between atoms: _99  and  _101
REMARK   40  A    between atoms: _101  and  _102
REMARK   41  A    between atoms: _101  and  _104
REMARK   42  A    between atoms: _104  and  _105
REMARK   43  A    between atoms: _110  and  _111
REMARK   44  A    between atoms: _113  and  _115
REMARK   45  A    between atoms: _115  and  _116
REMARK   46  A    between atoms: _115  and  _118
REMARK   47  A    between atoms: _118  and  _119
REMARK   48  A    between atoms: _124  and  _125
REMARK   49  A    between atoms: _127  and  _129
REMARK   50  A    between atoms: _129  and  _130
REMARK   51  A    between atoms: _129  and  _132
REMARK   52  A    between atoms: _132  and  _133
REMARK   53  A    between atoms: _138  and  _139
REMARK   54  A    between atoms: _141  and  _143
REMARK   55  A    between atoms: _143  and  _144
REMARK   56  A    between atoms: _143  and  _146
REMARK   57  A    between atoms: _146  and  _147
REMARK   58  A    between atoms: _152  and  _154
REMARK   59  A    between atoms: _165  and  _168
REMARK   60  A    between atoms: _168  and  _169
REMARK   61  A    between atoms: _174  and  _175
REMARK   62  A    between atoms: _179  and  _180
REMARK   63  A    between atoms: _186  and  _188
REMARK   64  A    between atoms: _188  and  _189
REMARK   65  A    between atoms: _188  and  _191
REMARK   66  A    between atoms: _191  and  _192
REMARK   67  A    between atoms: _192  and  _193
REMARK   68  A    between atoms: _193  and  _194
REMARK   69  A    between atoms: _203  and  _205
REMARK   70  A    between atoms: _205  and  _206
REMARK   71  A    between atoms: _205  and  _208
REMARK   72  A    between atoms: _208  and  _209
REMARK   73  A    between atoms: _212  and  _214
REMARK   74  A    between atoms: _214  and  _215
REMARK   75  A    between atoms: _214  and  _217
REMARK   76  A    between atoms: _217  and  _218
REMARK   77  A    between atoms: _218  and  _219
REMARK   78  A    between atoms: _221  and  _223
REMARK   79  A    between atoms: _223  and  _224
REMARK   80  A    between atoms: _223  and  _226
REMARK   81  A    between atoms: _226  and  _227
REMARK   82  A    between atoms: _232  and  _233
REMARK   83  A    between atoms: _235  and  _237
REMARK   84  A    between atoms: _237  and  _238
REMARK   85  A    between atoms: _240  and  _242
REMARK   86  A    between atoms: _242  and  _243
REMARK   87  A    between atoms: _242  and  _245
REMARK   88  A    between atoms: _245  and  _246
REMARK   89  A    between atoms: _246  and  _247
REMARK   90  A    between atoms: _250  and  _252
REMARK   91  A    between atoms: _252  and  _253
REMARK   92  A    between atoms: _252  and  _255
REMARK   93  A    between atoms: _255  and  _256
REMARK   94  A    between atoms: _259  and  _261
REMARK   95  A    between atoms: _261  and  _262
REMARK   96  A    between atoms: _261  and  _264
REMARK   97  A    between atoms: _264  and  _265
REMARK   98  A    between atoms: _268  and  _270
REMARK   99  A    between atoms: _270  and  _271
REMARK  100  A    between atoms: _270  and  _273
REMARK  101  A    between atoms: _273  and  _274
REMARK  102  A    between atoms: _280  and  _282
REMARK  103  A    between atoms: _282  and  _283
REMARK  104  A    between atoms: _282  and  _285
REMARK  105  A    between atoms: _285  and  _286
REMARK  106  A    between atoms: _290  and  _291
REMARK  107  A    between atoms: _296  and  _298
REMARK  108  A    between atoms: _298  and  _299
REMARK  109  A    between atoms: _298  and  _301
REMARK  110  A    between atoms: _301  and  _302
REMARK  111  A    between atoms: _305  and  _307
REMARK  112  A    between atoms: _307  and  _308
REMARK  113  A    between atoms: _307  and  _310
REMARK  114  A    between atoms: _310  and  _311
REMARK  115  A    between atoms: _317  and  _319
REMARK  116  A    between atoms: _319  and  _320
REMARK  117  A    between atoms: _319  and  _322
REMARK  118  A    between atoms: _322  and  _323
REMARK  119  A    between atoms: _326  and  _328
REMARK  120  A    between atoms: _328  and  _329
REMARK  121  A    between atoms: _328  and  _331
REMARK  122  A    between atoms: _331  and  _332
REMARK  123  A    between atoms: _335  and  _337
REMARK  124  A    between atoms: _337  and  _338
REMARK  125  A    between atoms: _337  and  _340
REMARK  126  A    between atoms: _340  and  _341
REMARK  127  A    between atoms: _345  and  ZN_438
REMARK  128  A    between atoms: _346  and  _348
REMARK  129  A    between atoms: _348  and  _349
REMARK  130  A    between atoms: _352  and  _354
REMARK  131  A    between atoms: _354  and  _355
REMARK  132  A    between atoms: _357  and  _359
REMARK  133  A    between atoms: _359  and  _360
REMARK  134  A    between atoms: _359  and  _362
REMARK  135  A    between atoms: _362  and  _363
REMARK  136  A    between atoms: _366  and  _368
REMARK  137  A    between atoms: _368  and  _369
REMARK  138  A    between atoms: _368  and  _371
REMARK  139  A    between atoms: _374  and  _376
REMARK  140  A    between atoms: _376  and  _377
REMARK  141  A    between atoms: _376  and  _379
REMARK  142  A    between atoms: _379  and  _380
REMARK  143  A    between atoms: _380  and  _381
REMARK  144  A    between atoms: _381  and  _382
REMARK  145  A    between atoms: _382  and  _383
REMARK  146  A    between atoms: _387  and  _389
REMARK  147  A    between atoms: _389  and  _390
REMARK  148  A    between atoms: _389  and  _392
REMARK  149  A    between atoms: _392  and  _393
REMARK  150  A    between atoms: _396  and  _398
REMARK  151  A    between atoms: _398  and  _399
REMARK  152  A    between atoms: _398  and  _401
REMARK  153  A    between atoms: _401  and  _402
REMARK  154  A    between atoms: _405  and  _407
REMARK  155  A    between atoms: _407  and  _408
REMARK  156  A    between atoms: _411  and  _413
REMARK  157  A    between atoms: _413  and  _414
REMARK  158  A    between atoms: _413  and  _416
REMARK  159  A    between atoms: _416  and  _417
REMARK  160  A    between atoms: _422  and  _424
REMARK  161  A    between atoms: _424  and  _425
REMARK  162  A    between atoms: _424  and  _427
REMARK  163  A    between atoms: _427  and  _428
REMARK                            x       y       z     vdW  Elec       q    Type
REMARK                         _______ _______ _______ _____ _____    ______ ____
ROOT
ATOM      1  O   HOH     1      -6.478  17.695 -10.745  0.00  0.00    +0.000 OA
ENDROOT
TORSDOF 0
REMARK  Name = ../refined-set-2016/5c5t/5c5t_pocket.pdb
REMARK  163 active torsions:
REMARK  status: ('A' for Active; 'I' for Inactive)
REMARK    1  A    between atoms: _1  and  _3
REMARK    2  A    between atoms: _3  and  _4
REMARK    3  A    between atoms: _3  and  _6
REMARK    4  A    between atoms: _6  and  _7
REMARK    5  A    between atoms: _7  and  _8
REMARK    6  A    between atoms: _8  and  _9
REMARK    7  A    between atoms: _18  and  _20
REMARK    8  A    between atoms: _20  and  _21
REMARK    9  A    between atoms: _20  and  _23
REMARK   10  A    between atoms: _23  and  _24
REMARK   11  A    between atoms: _26  and  _28
REMARK   12  A    between atoms: _28  and  _29
REMARK   13  A    between atoms: _28  and  _31
REMARK   14  A    between atoms: _31  and  _32
REMARK   15  A    between atoms: _32  and  _33
REMARK   16  A    between atoms: _38  and  _40
REMARK   17  A    between atoms: _40  and  _41
REMARK   18  A    between atoms: _40  and  _43
REMARK   19  A    between atoms: _43  and  _44
REMARK   20  A    between atoms: _44  and  _45
REMARK   21  A    between atoms: _50  and  _52
REMARK   22  A    between atoms: _52  and  _53
REMARK   23  A    between atoms: _56  and  _58
REMARK   24  A    between atoms: _58  and  _59
REMARK   25  A    between atoms: _58  and  _61
REMARK   26  A    between atoms: _61  and  _62
REMARK   27  A    between atoms: _62  and  _63
REMARK   28  A    between atoms: _63  and  _64
REMARK   29  A    between atoms: _73  and  _75
REMARK   30  A    between atoms: _75  and  _76
REMARK   31  A    between atoms: _75  and  _78
REMARK   32  A    between atoms: _78  and  _79
REMARK   33  A    between atoms: _84  and  _85
REMARK   34  A    between atoms: _87  and  _89
REMARK   35  A    between atoms: _89  and  _90
REMARK   36  A    between atoms: _89  and  _92
REMARK   37  A    between atoms: _92  and  _93
REMARK   38  A    between atoms: _93  and  _94
REMARK   39  A    between atoms: _99  and  _101
REMARK   40  A    between atoms: _101  and  _102
REMARK   41  A    between atoms: _101  and  _104
REMARK   42  A    between atoms: _104  and  _105
REMARK   43  A    between atoms: _110  and  _111
REMARK   44  A    between atoms: _113  and  _115
REMARK   45  A    between atoms: _115  and  _116
REMARK   46  A    between atoms: _115  and  _118
REMARK   47  A    between atoms: _118  and  _119
REMARK   48  A    between atoms: _124  and  _125
REMARK   49  A    between atoms: _127  and  _129
REMARK   50  A    between atoms: _129  and  _130
REMARK   51  A    between atoms: _129  and  _132
REMARK   52  A    between atoms: _132  and  _133
REMARK   53  A    between atoms: _138  and  _139
REMARK   54  A    between atoms: _141  and  _143
REMARK   55  A    between atoms: _143  and  _144
REMARK   56  A    between atoms: _143  and  _146
REMARK   57  A    between atoms: _146  and  _147
REMARK   58  A    between atoms: _152  and  _154
REMARK   59  A    between atoms: _165  and  _168
REMARK   60  A    between atoms: _168  and  _169
REMARK   61  A    between atoms: _174  and  _175
REMARK   62  A    between atoms: _179  and  _180
REMARK   63  A    between atoms: _186  and  _188
REMARK   64  A    between atoms: _188  and  _189
REMARK   65  A    between atoms: _188  and  _191
REMARK   66  A    between atoms: _191  and  _192
REMARK   67  A    between atoms: _192  and  _193
REMARK   68  A    between atoms: _193  and  _194
REMARK   69  A    between atoms: _203  and  _205
REMARK   70  A    between atoms: _205  and  _206
REMARK   71  A    between atoms: _205  and  _208
REMARK   72  A    between atoms: _208  and  _209
REMARK   73  A    between atoms: _212  and  _214
REMARK   74  A    between atoms: _214  and  _215
REMARK   75  A    between atoms: _214  and  _217
REMARK   76  A    between atoms: _217  and  _218
REMARK   77  A    between atoms: _218  and  _219
REMARK   78  A    between atoms: _221  and  _223
REMARK   79  A    between atoms: _223  and  _224
REMARK   80  A    between atoms: _223  and  _226
REMARK   81  A    between atoms: _226  and  _227
REMARK   82  A    between atoms: _232  and  _233
REMARK   83  A    between atoms: _235  and  _237
REMARK   84  A    between atoms: _237  and  _238
REMARK   85  A    between atoms: _240  and  _242
REMARK   86  A    between atoms: _242  and  _243
REMARK   87  A    between atoms: _242  and  _245
REMARK   88  A    between atoms: _245  and  _246
REMARK   89  A    between atoms: _246  and  _247
REMARK   90  A    between atoms: _250  and  _252
REMARK   91  A    between atoms: _252  and  _253
REMARK   92  A    between atoms: _252  and  _255
REMARK   93  A    between atoms: _255  and  _256
REMARK   94  A    between atoms: _259  and  _261
REMARK   95  A    between atoms: _261  and  _262
REMARK   96  A    between atoms: _261  and  _264
REMARK   97  A    between atoms: _264  and  _265
REMARK   98  A    between atoms: _268  and  _270
REMARK   99  A    between atoms: _270  and  _271
REMARK  100  A    between atoms: _270  and  _273
REMARK  101  A    between atoms: _273  and  _274
REMARK  102  A    between atoms: _280  and  _282
REMARK  103  A    between atoms: _282  and  _283
REMARK  104  A    between atoms: _282  and  _285
REMARK  105  A    between atoms: _285  and  _286
REMARK  106  A    between atoms: _290  and  _291
REMARK  107  A    between atoms: _296  and  _298
REMARK  108  A    between atoms: _298  and  _299
REMARK  109  A    between atoms: _298  and  _301
REMARK  110  A    between atoms: _301  and  _302
REMARK  111  A    between atoms: _305  and  _307
REMARK  112  A    between atoms: _307  and  _308
REMARK  113  A    between atoms: _307  and  _310
REMARK  114  A    between atoms: _310  and  _311
REMARK  115  A    between atoms: _317  and  _319
REMARK  116  A    between atoms: _319  and  _320
REMARK  117  A    between atoms: _319  and  _322
REMARK  118  A    between atoms: _322  and  _323
REMARK  119  A    between atoms: _326  and  _328
REMARK  120  A    between atoms: _328  and  _329
REMARK  121  A    between atoms: _328  and  _331
REMARK  122  A    between atoms: _331  and  _332
REMARK  123  A    between atoms: _335  and  _337
REMARK  124  A    between atoms: _337  and  _338
REMARK  125  A    between atoms: _337  and  _340
REMARK  126  A    between atoms: _340  and  _341
REMARK  127  A    between atoms: _345  and  ZN_438
REMARK  128  A    between atoms: _346  and  _348
REMARK  129  A    between atoms: _348  and  _349
REMARK  130  A    between atoms: _352  and  _354
REMARK  131  A    between atoms: _354  and  _355
REMARK  132  A    between atoms: _357  and  _359
REMARK  133  A    between atoms: _359  and  _360
REMARK  134  A    between atoms: _359  and  _362
REMARK  135  A    between atoms: _362  and  _363
REMARK  136  A    between atoms: _366  and  _368
REMARK  137  A    between atoms: _368  and  _369
REMARK  138  A    between atoms: _368  and  _371
REMARK  139  A    between atoms: _374  and  _376
REMARK  140  A    between atoms: _376  and  _377
REMARK  141  A    between atoms: _376  and  _379
REMARK  142  A    between atoms: _379  and  _380
REMARK  143  A    between atoms: _380  and  _381
REMARK  144  A    between atoms: _381  and  _382
REMARK  145  A    between atoms: _382  and  _383
REMARK  146  A    between atoms: _387  and  _389
REMARK  147  A    between atoms: _389  and  _390
REMARK  148  A    between atoms: _389  and  _392
REMARK  149  A    between atoms: _392  and  _393
REMARK  150  A    between atoms: _396  and  _398
REMARK  151  A    between atoms: _398  and  _399
REMARK  152  A    between atoms: _398  and  _401
REMARK  153  A    between atoms: _401  and  _402
REMARK  154  A    between atoms: _405  and  _407
REMARK  155  A    between atoms: _407  and  _408
REMARK  156  A    between atoms: _411  and  _413
REMARK  157  A    between atoms: _413  and  _414
REMARK  158  A    between atoms: _413  and  _416
REMARK  159  A    between atoms: _416  and  _417
REMARK  160  A    between atoms: _422  and  _424
REMARK  161  A    between atoms: _424  and  _425
REMARK  162  A    between atoms: _424  and  _427
REMARK  163  A    between atoms: _427  and  _428
REMARK                            x       y       z     vdW  Elec       q    Type
REMARK                         _______ _______ _______ _____ _____    ______ ____
ROOT
ATOM      1  O   HOH     1      -7.071  19.300 -12.874  0.00  0.00    +0.000 OA
ENDROOT
TORSDOF 0
REMARK  Name = ../refined-set-2016/5c5t/5c5t_pocket.pdb
REMARK  163 active torsions:
REMARK  status: ('A' for Active; 'I' for Inactive)
REMARK    1  A    between atoms: _1  and  _3
REMARK    2  A    between atoms: _3  and  _4
REMARK    3  A    between atoms: _3  and  _6
REMARK    4  A    between atoms: _6  and  _7
REMARK    5  A    between atoms: _7  and  _8
REMARK    6  A    between atoms: _8  and  _9
REMARK    7  A    between atoms: _18  and  _20
REMARK    8  A    between atoms: _20  and  _21
REMARK    9  A    between atoms: _20  and  _23
REMARK   10  A    between atoms: _23  and  _24
REMARK   11  A    between atoms: _26  and  _28
REMARK   12  A    between atoms: _28  and  _29
REMARK   13  A    between atoms: _28  and  _31
REMARK   14  A    between atoms: _31  and  _32
REMARK   15  A    between atoms: _32  and  _33
REMARK   16  A    between atoms: _38  and  _40
REMARK   17  A    between atoms: _40  and  _41
REMARK   18  A    between atoms: _40  and  _43
REMARK   19  A    between atoms: _43  and  _44
REMARK   20  A    between atoms: _44  and  _45
REMARK   21  A    between atoms: _50  and  _52
REMARK   22  A    between atoms: _52  and  _53
REMARK   23  A    between atoms: _56  and  _58
REMARK   24  A    between atoms: _58  and  _59
REMARK   25  A    between atoms: _58  and  _61
REMARK   26  A    between atoms: _61  and  _62
REMARK   27  A    between atoms: _62  and  _63
REMARK   28  A    between atoms: _63  and  _64
REMARK   29  A    between atoms: _73  and  _75
REMARK   30  A    between atoms: _75  and  _76
REMARK   31  A    between atoms: _75  and  _78
REMARK   32  A    between atoms: _78  and  _79
REMARK   33  A    between atoms: _84  and  _85
REMARK   34  A    between atoms: _87  and  _89
REMARK   35  A    between atoms: _89  and  _90
REMARK   36  A    between atoms: _89  and  _92
REMARK   37  A    between atoms: _92  and  _93
REMARK   38  A    between atoms: _93  and  _94
REMARK   39  A    between atoms: _99  and  _101
REMARK   40  A    between atoms: _101  and  _102
REMARK   41  A    between atoms: _101  and  _104
REMARK   42  A    between atoms: _104  and  _105
REMARK   43  A    between atoms: _110  and  _111
REMARK   44  A    between atoms: _113  and  _115
REMARK   45  A    between atoms: _115  and  _116
REMARK   46  A    between atoms: _115  and  _118
REMARK   47  A    between atoms: _118  and  _119
REMARK   48  A    between atoms: _124  and  _125
REMARK   49  A    between atoms: _127  and  _129
REMARK   50  A    between atoms: _129  and  _130
REMARK   51  A    between atoms: _129  and  _132
REMARK   52  A    between atoms: _132  and  _133
REMARK   53  A    between atoms: _138  and  _139
REMARK   54  A    between atoms: _141  and  _143
REMARK   55  A    between atoms: _143  and  _144
REMARK   56  A    between atoms: _143  and  _146
REMARK   57  A    between atoms: _146  and  _147
REMARK   58  A    between atoms: _152  and  _154
REMARK   59  A    between atoms: _165  and  _168
REMARK   60  A    between atoms: _168  and  _169
REMARK   61  A    between atoms: _174  and  _175
REMARK   62  A    between atoms: _179  and  _180
REMARK   63  A    between atoms: _186  and  _188
REMARK   64  A    between atoms: _188  and  _189
REMARK   65  A    between atoms: _188  and  _191
REMARK   66  A    between atoms: _191  and  _192
REMARK   67  A    between atoms: _192  and  _193
REMARK   68  A    between atoms: _193  and  _194
REMARK   69  A    between atoms: _203  and  _205
REMARK   70  A    between atoms: _205  and  _206
REMARK   71  A    between atoms: _205  and  _208
REMARK   72  A    between atoms: _208  and  _209
REMARK   73  A    between atoms: _212  and  _214
REMARK   74  A    between atoms: _214  and  _215
REMARK   75  A    between atoms: _214  and  _217
REMARK   76  A    between atoms: _217  and  _218
REMARK   77  A    between atoms: _218  and  _219
REMARK   78  A    between atoms: _221  and  _223
REMARK   79  A    between atoms: _223  and  _224
REMARK   80  A    between atoms: _223  and  _226
REMARK   81  A    between atoms: _226  and  _227
REMARK   82  A    between atoms: _232  and  _233
REMARK   83  A    between atoms: _235  and  _237
REMARK   84  A    between atoms: _237  and  _238
REMARK   85  A    between atoms: _240  and  _242
REMARK   86  A    between atoms: _242  and  _243
REMARK   87  A    between atoms: _242  and  _245
REMARK   88  A    between atoms: _245  and  _246
REMARK   89  A    between atoms: _246  and  _247
REMARK   90  A    between atoms: _250  and  _252
REMARK   91  A    between atoms: _252  and  _253
REMARK   92  A    between atoms: _252  and  _255
REMARK   93  A    between atoms: _255  and  _256
REMARK   94  A    between atoms: _259  and  _261
REMARK   95  A    between atoms: _261  and  _262
REMARK   96  A    between atoms: _261  and  _264
REMARK   97  A    between atoms: _264  and  _265
REMARK   98  A    between atoms: _268  and  _270
REMARK   99  A    between atoms: _270  and  _271
REMARK  100  A    between atoms: _270  and  _273
REMARK  101  A    between atoms: _273  and  _274
REMARK  102  A    between atoms: _280  and  _282
REMARK  103  A    between atoms: _282  and  _283
REMARK  104  A    between atoms: _282  and  _285
REMARK  105  A    between atoms: _285  and  _286
REMARK  106  A    between atoms: _290  and  _291
REMARK  107  A    between atoms: _296  and  _298
REMARK  108  A    between atoms: _298  and  _299
REMARK  109  A    between atoms: _298  and  _301
REMARK  110  A    between atoms: _301  and  _302
REMARK  111  A    between atoms: _305  and  _307
REMARK  112  A    between atoms: _307  and  _308
REMARK  113  A    between atoms: _307  and  _310
REMARK  114  A    between atoms: _310  and  _311
REMARK  115  A    between atoms: _317  and  _319
REMARK  116  A    between atoms: _319  and  _320
REMARK  117  A    between atoms: _319  and  _322
REMARK  118  A    between atoms: _322  and  _323
REMARK  119  A    between atoms: _326  and  _328
REMARK  120  A    between atoms: _328  and  _329
REMARK  121  A    between atoms: _328  and  _331
REMARK  122  A    between atoms: _331  and  _332
REMARK  123  A    between atoms: _335  and  _337
REMARK  124  A    between atoms: _337  and  _338
REMARK  125  A    between atoms: _337  and  _340
REMARK  126  A    between atoms: _340  and  _341
REMARK  127  A    between atoms: _345  and  ZN_438
REMARK  128  A    between atoms: _346  and  _348
REMARK  129  A    between atoms: _348  and  _349
REMARK  130  A    between atoms: _352  and  _354
REMARK  131  A    between atoms: _354  and  _355
REMARK  132  A    between atoms: _357  and  _359
REMARK  133  A    between atoms: _359  and  _360
REMARK  134  A    between atoms: _359  and  _362
REMARK  135  A    between atoms: _362  and  _363
REMARK  136  A    between atoms: _366  and  _368
REMARK  137  A    between atoms: _368  and  _369
REMARK  138  A    between atoms: _368  and  _371
REMARK  139  A    between atoms: _374  and  _376
REMARK  140  A    between atoms: _376  and  _377
REMARK  141  A    between atoms: _376  and  _379
REMARK  142  A    between atoms: _379  and  _380
REMARK  143  A    between atoms: _380  and  _381
REMARK  144  A    between atoms: _381  and  _382
REMARK  145  A    between atoms: _382  and  _383
REMARK  146  A    between atoms: _387  and  _389
REMARK  147  A    between atoms: _389  and  _390
REMARK  148  A    between atoms: _389  and  _392
REMARK  149  A    between atoms: _392  and  _393
REMARK  150  A    between atoms: _396  and  _398
REMARK  151  A    between atoms: _398  and  _399
REMARK  152  A    between atoms: _398  and  _401
REMARK  153  A    between atoms: _401  and  _402
REMARK  154  A    between atoms: _405  and  _407
REMARK  155  A    between atoms: _407  and  _408
REMARK  156  A    between atoms: _411  and  _413
REMARK  157  A    between atoms: _413  and  _414
REMARK  158  A    between atoms: _413  and  _416
REMARK  159  A    between atoms: _416  and  _417
REMARK  160  A    between atoms: _422  and  _424
REMARK  161  A    between atoms: _424  and  _425
REMARK  162  A    between atoms: _424  and  _427
REMARK  163  A    between atoms: _427  and  _428
REMARK                            x       y       z     vdW  Elec       q    Type
REMARK                         _______ _______ _______ _____ _____    ______ ____
ROOT
ATOM      1  O   HOH     1      -8.881  12.372  -8.258  0.00  0.00    +0.000 OA
ENDROOT
TORSDOF 0
REMARK  Name = ../refined-set-2016/5c5t/5c5t_pocket.pdb
REMARK  163 active torsions:
REMARK  status: ('A' for Active; 'I' for Inactive)
REMARK    1  A    between atoms: _1  and  _3
REMARK    2  A    between atoms: _3  and  _4
REMARK    3  A    between atoms: _3  and  _6
REMARK    4  A    between atoms: _6  and  _7
REMARK    5  A    between atoms: _7  and  _8
REMARK    6  A    between atoms: _8  and  _9
REMARK    7  A    between atoms: _18  and  _20
REMARK    8  A    between atoms: _20  and  _21
REMARK    9  A    between atoms: _20  and  _23
REMARK   10  A    between atoms: _23  and  _24
REMARK   11  A    between atoms: _26  and  _28
REMARK   12  A    between atoms: _28  and  _29
REMARK   13  A    between atoms: _28  and  _31
REMARK   14  A    between atoms: _31  and  _32
REMARK   15  A    between atoms: _32  and  _33
REMARK   16  A    between atoms: _38  and  _40
REMARK   17  A    between atoms: _40  and  _41
REMARK   18  A    between atoms: _40  and  _43
REMARK   19  A    between atoms: _43  and  _44
REMARK   20  A    between atoms: _44  and  _45
REMARK   21  A    between atoms: _50  and  _52
REMARK   22  A    between atoms: _52  and  _53
REMARK   23  A    between atoms: _56  and  _58
REMARK   24  A    between atoms: _58  and  _59
REMARK   25  A    between atoms: _58  and  _61
REMARK   26  A    between atoms: _61  and  _62
REMARK   27  A    between atoms: _62  and  _63
REMARK   28  A    between atoms: _63  and  _64
REMARK   29  A    between atoms: _73  and  _75
REMARK   30  A    between atoms: _75  and  _76
REMARK   31  A    between atoms: _75  and  _78
REMARK   32  A    between atoms: _78  and  _79
REMARK   33  A    between atoms: _84  and  _85
REMARK   34  A    between atoms: _87  and  _89
REMARK   35  A    between atoms: _89  and  _90
REMARK   36  A    between atoms: _89  and  _92
REMARK   37  A    between atoms: _92  and  _93
REMARK   38  A    between atoms: _93  and  _94
REMARK   39  A    between atoms: _99  and  _101
REMARK   40  A    between atoms: _101  and  _102
REMARK   41  A    between atoms: _101  and  _104
REMARK   42  A    between atoms: _104  and  _105
REMARK   43  A    between atoms: _110  and  _111
REMARK   44  A    between atoms: _113  and  _115
REMARK   45  A    between atoms: _115  and  _116
REMARK   46  A    between atoms: _115  and  _118
REMARK   47  A    between atoms: _118  and  _119
REMARK   48  A    between atoms: _124  and  _125
REMARK   49  A    between atoms: _127  and  _129
REMARK   50  A    between atoms: _129  and  _130
REMARK   51  A    between atoms: _129  and  _132
REMARK   52  A    between atoms: _132  and  _133
REMARK   53  A    between atoms: _138  and  _139
REMARK   54  A    between atoms: _141  and  _143
REMARK   55  A    between atoms: _143  and  _144
REMARK   56  A    between atoms: _143  and  _146
REMARK   57  A    between atoms: _146  and  _147
REMARK   58  A    between atoms: _152  and  _154
REMARK   59  A    between atoms: _165  and  _168
REMARK   60  A    between atoms: _168  and  _169
REMARK   61  A    between atoms: _174  and  _175
REMARK   62  A    between atoms: _179  and  _180
REMARK   63  A    between atoms: _186  and  _188
REMARK   64  A    between atoms: _188  and  _189
REMARK   65  A    between atoms: _188  and  _191
REMARK   66  A    between atoms: _191  and  _192
REMARK   67  A    between atoms: _192  and  _193
REMARK   68  A    between atoms: _193  and  _194
REMARK   69  A    between atoms: _203  and  _205
REMARK   70  A    between atoms: _205  and  _206
REMARK   71  A    between atoms: _205  and  _208
REMARK   72  A    between atoms: _208  and  _209
REMARK   73  A    between atoms: _212  and  _214
REMARK   74  A    between atoms: _214  and  _215
REMARK   75  A    between atoms: _214  and  _217
REMARK   76  A    between atoms: _217  and  _218
REMARK   77  A    between atoms: _218  and  _219
REMARK   78  A    between atoms: _221  and  _223
REMARK   79  A    between atoms: _223  and  _224
REMARK   80  A    between atoms: _223  and  _226
REMARK   81  A    between atoms: _226  and  _227
REMARK   82  A    between atoms: _232  and  _233
REMARK   83  A    between atoms: _235  and  _237
REMARK   84  A    between atoms: _237  and  _238
REMARK   85  A    between atoms: _240  and  _242
REMARK   86  A    between atoms: _242  and  _243
REMARK   87  A    between atoms: _242  and  _245
REMARK   88  A    between atoms: _245  and  _246
REMARK   89  A    between atoms: _246  and  _247
REMARK   90  A    between atoms: _250  and  _252
REMARK   91  A    between atoms: _252  and  _253
REMARK   92  A    between atoms: _252  and  _255
REMARK   93  A    between atoms: _255  and  _256
REMARK   94  A    between atoms: _259  and  _261
REMARK   95  A    between atoms: _261  and  _262
REMARK   96  A    between atoms: _261  and  _264
REMARK   97  A    between atoms: _264  and  _265
REMARK   98  A    between atoms: _268  and  _270
REMARK   99  A    between atoms: _270  and  _271
REMARK  100  A    between atoms: _270  and  _273
REMARK  101  A    between atoms: _273  and  _274
REMARK  102  A    between atoms: _280  and  _282
REMARK  103  A    between atoms: _282  and  _283
REMARK  104  A    between atoms: _282  and  _285
REMARK  105  A    between atoms: _285  and  _286
REMARK  106  A    between atoms: _290  and  _291
REMARK  107  A    between atoms: _296  and  _298
REMARK  108  A    between atoms: _298  and  _299
REMARK  109  A    between atoms: _298  and  _301
REMARK  110  A    between atoms: _301  and  _302
REMARK  111  A    between atoms: _305  and  _307
REMARK  112  A    between atoms: _307  and  _308
REMARK  113  A    between atoms: _307  and  _310
REMARK  114  A    between atoms: _310  and  _311
REMARK  115  A    between atoms: _317  and  _319
REMARK  116  A    between atoms: _319  and  _320
REMARK  117  A    between atoms: _319  and  _322
REMARK  118  A    between atoms: _322  and  _323
REMARK  119  A    between atoms: _326  and  _328
REMARK  120  A    between atoms: _328  and  _329
REMARK  121  A    between atoms: _328  and  _331
REMARK  122  A    between atoms: _331  and  _332
REMARK  123  A    between atoms: _335  and  _337
REMARK  124  A    between atoms: _337  and  _338
REMARK  125  A    between atoms: _337  and  _340
REMARK  126  A    between atoms: _340  and  _341
REMARK  127  A    between atoms: _345  and  ZN_438
REMARK  128  A    between atoms: _346  and  _348
REMARK  129  A    between atoms: _348  and  _349
REMARK  130  A    between atoms: _352  and  _354
REMARK  131  A    between atoms: _354  and  _355
REMARK  132  A    between atoms: _357  and  _359
REMARK  133  A    between atoms: _359  and  _360
REMARK  134  A    between atoms: _359  and  _362
REMARK  135  A    between atoms: _362  and  _363
REMARK  136  A    between atoms: _366  and  _368
REMARK  137  A    between atoms: _368  and  _369
REMARK  138  A    between atoms: _368  and  _371
REMARK  139  A    between atoms: _374  and  _376
REMARK  140  A    between atoms: _376  and  _377
REMARK  141  A    between atoms: _376  and  _379
REMARK  142  A    between atoms: _379  and  _380
REMARK  143  A    between atoms: _380  and  _381
REMARK  144  A    between atoms: _381  and  _382
REMARK  145  A    between atoms: _382  and  _383
REMARK  146  A    between atoms: _387  and  _389
REMARK  147  A    between atoms: _389  and  _390
REMARK  148  A    between atoms: _389  and  _392
REMARK  149  A    between atoms: _392  and  _393
REMARK  150  A    between atoms: _396  and  _398
REMARK  151  A    between atoms: _398  and  _399
REMARK  152  A    between atoms: _398  and  _401
REMARK  153  A    between atoms: _401  and  _402
REMARK  154  A    between atoms: _405  and  _407
REMARK  155  A    between atoms: _407  and  _408
REMARK  156  A    between atoms: _411  and  _413
REMARK  157  A    between atoms: _413  and  _414
REMARK  158  A    between atoms: _413  and  _416
REMARK  159  A    between atoms: _416  and  _417
REMARK  160  A    between atoms: _422  and  _424
REMARK  161  A    between atoms: _424  and  _425
REMARK  162  A    between atoms: _424  and  _427
REMARK  163  A    between atoms: _427  and  _428
REMARK                            x       y       z     vdW  Elec       q    Type
REMARK                         _______ _______ _______ _____ _____    ______ ____
ROOT
ATOM      1  O   HOH     1     -12.604  22.916 -15.307  0.00  0.00    +0.000 OA
ENDROOT
TORSDOF 0
REMARK  Name = ../refined-set-2016/5c5t/5c5t_pocket.pdb
REMARK  163 active torsions:
REMARK  status: ('A' for Active; 'I' for Inactive)
REMARK    1  A    between atoms: _1  and  _3
REMARK    2  A    between atoms: _3  and  _4
REMARK    3  A    between atoms: _3  and  _6
REMARK    4  A    between atoms: _6  and  _7
REMARK    5  A    between atoms: _7  and  _8
REMARK    6  A    between atoms: _8  and  _9
REMARK    7  A    between atoms: _18  and  _20
REMARK    8  A    between atoms: _20  and  _21
REMARK    9  A    between atoms: _20  and  _23
REMARK   10  A    between atoms: _23  and  _24
REMARK   11  A    between atoms: _26  and  _28
REMARK   12  A    between atoms: _28  and  _29
REMARK   13  A    between atoms: _28  and  _31
REMARK   14  A    between atoms: _31  and  _32
REMARK   15  A    between atoms: _32  and  _33
REMARK   16  A    between atoms: _38  and  _40
REMARK   17  A    between atoms: _40  and  _41
REMARK   18  A    between atoms: _40  and  _43
REMARK   19  A    between atoms: _43  and  _44
REMARK   20  A    between atoms: _44  and  _45
REMARK   21  A    between atoms: _50  and  _52
REMARK   22  A    between atoms: _52  and  _53
REMARK   23  A    between atoms: _56  and  _58
REMARK   24  A    between atoms: _58  and  _59
REMARK   25  A    between atoms: _58  and  _61
REMARK   26  A    between atoms: _61  and  _62
REMARK   27  A    between atoms: _62  and  _63
REMARK   28  A    between atoms: _63  and  _64
REMARK   29  A    between atoms: _73  and  _75
REMARK   30  A    between atoms: _75  and  _76
REMARK   31  A    between atoms: _75  and  _78
REMARK   32  A    between atoms: _78  and  _79
REMARK   33  A    between atoms: _84  and  _85
REMARK   34  A    between atoms: _87  and  _89
REMARK   35  A    between atoms: _89  and  _90
REMARK   36  A    between atoms: _89  and  _92
REMARK   37  A    between atoms: _92  and  _93
REMARK   38  A    between atoms: _93  and  _94
REMARK   39  A    between atoms: _99  and  _101
REMARK   40  A    between atoms: _101  and  _102
REMARK   41  A    between atoms: _101  and  _104
REMARK   42  A    between atoms: _104  and  _105
REMARK   43  A    between atoms: _110  and  _111
REMARK   44  A    between atoms: _113  and  _115
REMARK   45  A    between atoms: _115  and  _116
REMARK   46  A    between atoms: _115  and  _118
REMARK   47  A    between atoms: _118  and  _119
REMARK   48  A    between atoms: _124  and  _125
REMARK   49  A    between atoms: _127  and  _129
REMARK   50  A    between atoms: _129  and  _130
REMARK   51  A    between atoms: _129  and  _132
REMARK   52  A    between atoms: _132  and  _133
REMARK   53  A    between atoms: _138  and  _139
REMARK   54  A    between atoms: _141  and  _143
REMARK   55  A    between atoms: _143  and  _144
REMARK   56  A    between atoms: _143  and  _146
REMARK   57  A    between atoms: _146  and  _147
REMARK   58  A    between atoms: _152  and  _154
REMARK   59  A    between atoms: _165  and  _168
REMARK   60  A    between atoms: _168  and  _169
REMARK   61  A    between atoms: _174  and  _175
REMARK   62  A    between atoms: _179  and  _180
REMARK   63  A    between atoms: _186  and  _188
REMARK   64  A    between atoms: _188  and  _189
REMARK   65  A    between atoms: _188  and  _191
REMARK   66  A    between atoms: _191  and  _192
REMARK   67  A    between atoms: _192  and  _193
REMARK   68  A    between atoms: _193  and  _194
REMARK   69  A    between atoms: _203  and  _205
REMARK   70  A    between atoms: _205  and  _206
REMARK   71  A    between atoms: _205  and  _208
REMARK   72  A    between atoms: _208  and  _209
REMARK   73  A    between atoms: _212  and  _214
REMARK   74  A    between atoms: _214  and  _215
REMARK   75  A    between atoms: _214  and  _217
REMARK   76  A    between atoms: _217  and  _218
REMARK   77  A    between atoms: _218  and  _219
REMARK   78  A    between atoms: _221  and  _223
REMARK   79  A    between atoms: _223  and  _224
REMARK   80  A    between atoms: _223  and  _226
REMARK   81  A    between atoms: _226  and  _227
REMARK   82  A    between atoms: _232  and  _233
REMARK   83  A    between atoms: _235  and  _237
REMARK   84  A    between atoms: _237  and  _238
REMARK   85  A    between atoms: _240  and  _242
REMARK   86  A    between atoms: _242  and  _243
REMARK   87  A    between atoms: _242  and  _245
REMARK   88  A    between atoms: _245  and  _246
REMARK   89  A    between atoms: _246  and  _247
REMARK   90  A    between atoms: _250  and  _252
REMARK   91  A    between atoms: _252  and  _253
REMARK   92  A    between atoms: _252  and  _255
REMARK   93  A    between atoms: _255  and  _256
REMARK   94  A    between atoms: _259  and  _261
REMARK   95  A    between atoms: _261  and  _262
REMARK   96  A    between atoms: _261  and  _264
REMARK   97  A    between atoms: _264  and  _265
REMARK   98  A    between atoms: _268  and  _270
REMARK   99  A    between atoms: _270  and  _271
REMARK  100  A    between atoms: _270  and  _273
REMARK  101  A    between atoms: _273  and  _274
REMARK  102  A    between atoms: _280  and  _282
REMARK  103  A    between atoms: _282  and  _283
REMARK  104  A    between atoms: _282  and  _285
REMARK  105  A    between atoms: _285  and  _286
REMARK  106  A    between atoms: _290  and  _291
REMARK  107  A    between atoms: _296  and  _298
REMARK  108  A    between atoms: _298  and  _299
REMARK  109  A    between atoms: _298  and  _301
REMARK  110  A    between atoms: _301  and  _302
REMARK  111  A    between atoms: _305  and  _307
REMARK  112  A    between atoms: _307  and  _308
REMARK  113  A    between atoms: _307  and  _310
REMARK  114  A    between atoms: _310  and  _311
REMARK  115  A    between atoms: _317  and  _319
REMARK  116  A    between atoms: _319  and  _320
REMARK  117  A    between atoms: _319  and  _322
REMARK  118  A    between atoms: _322  and  _323
REMARK  119  A    between atoms: _326  and  _328
REMARK  120  A    between atoms: _328  and  _329
REMARK  121  A    between atoms: _328  and  _331
REMARK  122  A    between atoms: _331  and  _332
REMARK  123  A    between atoms: _335  and  _337
REMARK  124  A    between atoms: _337  and  _338
REMARK  125  A    between atoms: _337  and  _340
REMARK  126  A    between atoms: _340  and  _341
REMARK  127  A    between atoms: _345  and  ZN_438
REMARK  128  A    between atoms: _346  and  _348
REMARK  129  A    between atoms: _348  and  _349
REMARK  130  A    between atoms: _352  and  _354
REMARK  131  A    between atoms: _354  and  _355
REMARK  132  A    between atoms: _357  and  _359
REMARK  133  A    between atoms: _359  and  _360
REMARK  134  A    between atoms: _359  and  _362
REMARK  135  A    between atoms: _362  and  _363
REMARK  136  A    between atoms: _366  and  _368
REMARK  137  A    between atoms: _368  and  _369
REMARK  138  A    between atoms: _368  and  _371
REMARK  139  A    between atoms: _374  and  _376
REMARK  140  A    between atoms: _376  and  _377
REMARK  141  A    between atoms: _376  and  _379
REMARK  142  A    between atoms: _379  and  _380
REMARK  143  A    between atoms: _380  and  _381
REMARK  144  A    between atoms: _381  and  _382
REMARK  145  A    between atoms: _382  and  _383
REMARK  146  A    between atoms: _387  and  _389
REMARK  147  A    between atoms: _389  and  _390
REMARK  148  A    between atoms: _389  and  _392
REMARK  149  A    between atoms: _392  and  _393
REMARK  150  A    between atoms: _396  and  _398
REMARK  151  A    between atoms: _398  and  _399
REMARK  152  A    between atoms: _398  and  _401
REMARK  153  A    between atoms: _401  and  _402
REMARK  154  A    between atoms: _405  and  _407
REMARK  155  A    between atoms: _407  and  _408
REMARK  156  A    between atoms: _411  and  _413
REMARK  157  A    between atoms: _413  and  _414
REMARK  158  A    between atoms: _413  and  _416
REMARK  159  A    between atoms: _416  and  _417
REMARK  160  A    between atoms: _422  and  _424
REMARK  161  A    between atoms: _424  and  _425
REMARK  162  A    between atoms: _424  and  _427
REMARK  163  A    between atoms: _427  and  _428
REMARK                            x       y       z     vdW  Elec       q    Type
REMARK                         _______ _______ _______ _____ _____    ______ ____
ROOT
ATOM      1  O   HOH     1      -9.431  10.494 -12.337  0.00  0.00    +0.000 OA
ENDROOT
TORSDOF 0
REMARK  Name = ../refined-set-2016/5c5t/5c5t_pocket.pdb
REMARK  163 active torsions:
REMARK  status: ('A' for Active; 'I' for Inactive)
REMARK    1  A    between atoms: _1  and  _3
REMARK    2  A    between atoms: _3  and  _4
REMARK    3  A    between atoms: _3  and  _6
REMARK    4  A    between atoms: _6  and  _7
REMARK    5  A    between atoms: _7  and  _8
REMARK    6  A    between atoms: _8  and  _9
REMARK    7  A    between atoms: _18  and  _20
REMARK    8  A    between atoms: _20  and  _21
REMARK    9  A    between atoms: _20  and  _23
REMARK   10  A    between atoms: _23  and  _24
REMARK   11  A    between atoms: _26  and  _28
REMARK   12  A    between atoms: _28  and  _29
REMARK   13  A    between atoms: _28  and  _31
REMARK   14  A    between atoms: _31  and  _32
REMARK   15  A    between atoms: _32  and  _33
REMARK   16  A    between atoms: _38  and  _40
REMARK   17  A    between atoms: _40  and  _41
REMARK   18  A    between atoms: _40  and  _43
REMARK   19  A    between atoms: _43  and  _44
REMARK   20  A    between atoms: _44  and  _45
REMARK   21  A    between atoms: _50  and  _52
REMARK   22  A    between atoms: _52  and  _53
REMARK   23  A    between atoms: _56  and  _58
REMARK   24  A    between atoms: _58  and  _59
REMARK   25  A    between atoms: _58  and  _61
REMARK   26  A    between atoms: _61  and  _62
REMARK   27  A    between atoms: _62  and  _63
REMARK   28  A    between atoms: _63  and  _64
REMARK   29  A    between atoms: _73  and  _75
REMARK   30  A    between atoms: _75  and  _76
REMARK   31  A    between atoms: _75  and  _78
REMARK   32  A    between atoms: _78  and  _79
REMARK   33  A    between atoms: _84  and  _85
REMARK   34  A    between atoms: _87  and  _89
REMARK   35  A    between atoms: _89  and  _90
REMARK   36  A    between atoms: _89  and  _92
REMARK   37  A    between atoms: _92  and  _93
REMARK   38  A    between atoms: _93  and  _94
REMARK   39  A    between atoms: _99  and  _101
REMARK   40  A    between atoms: _101  and  _102
REMARK   41  A    between atoms: _101  and  _104
REMARK   42  A    between atoms: _104  and  _105
REMARK   43  A    between atoms: _110  and  _111
REMARK   44  A    between atoms: _113  and  _115
REMARK   45  A    between atoms: _115  and  _116
REMARK   46  A    between atoms: _115  and  _118
REMARK   47  A    between atoms: _118  and  _119
REMARK   48  A    between atoms: _124  and  _125
REMARK   49  A    between atoms: _127  and  _129
REMARK   50  A    between atoms: _129  and  _130
REMARK   51  A    between atoms: _129  and  _132
REMARK   52  A    between atoms: _132  and  _133
REMARK   53  A    between atoms: _138  and  _139
REMARK   54  A    between atoms: _141  and  _143
REMARK   55  A    between atoms: _143  and  _144
REMARK   56  A    between atoms: _143  and  _146
REMARK   57  A    between atoms: _146  and  _147
REMARK   58  A    between atoms: _152  and  _154
REMARK   59  A    between atoms: _165  and  _168
REMARK   60  A    between atoms: _168  and  _169
REMARK   61  A    between atoms: _174  and  _175
REMARK   62  A    between atoms: _179  and  _180
REMARK   63  A    between atoms: _186  and  _188
REMARK   64  A    between atoms: _188  and  _189
REMARK   65  A    between atoms: _188  and  _191
REMARK   66  A    between atoms: _191  and  _192
REMARK   67  A    between atoms: _192  and  _193
REMARK   68  A    between atoms: _193  and  _194
REMARK   69  A    between atoms: _203  and  _205
REMARK   70  A    between atoms: _205  and  _206
REMARK   71  A    between atoms: _205  and  _208
REMARK   72  A    between atoms: _208  and  _209
REMARK   73  A    between atoms: _212  and  _214
REMARK   74  A    between atoms: _214  and  _215
REMARK   75  A    between atoms: _214  and  _217
REMARK   76  A    between atoms: _217  and  _218
REMARK   77  A    between atoms: _218  and  _219
REMARK   78  A    between atoms: _221  and  _223
REMARK   79  A    between atoms: _223  and  _224
REMARK   80  A    between atoms: _223  and  _226
REMARK   81  A    between atoms: _226  and  _227
REMARK   82  A    between atoms: _232  and  _233
REMARK   83  A    between atoms: _235  and  _237
REMARK   84  A    between atoms: _237  and  _238
REMARK   85  A    between atoms: _240  and  _242
REMARK   86  A    between atoms: _242  and  _243
REMARK   87  A    between atoms: _242  and  _245
REMARK   88  A    between atoms: _245  and  _246
REMARK   89  A    between atoms: _246  and  _247
REMARK   90  A    between atoms: _250  and  _252
REMARK   91  A    between atoms: _252  and  _253
REMARK   92  A    between atoms: _252  and  _255
REMARK   93  A    between atoms: _255  and  _256
REMARK   94  A    between atoms: _259  and  _261
REMARK   95  A    between atoms: _261  and  _262
REMARK   96  A    between atoms: _261  and  _264
REMARK   97  A    between atoms: _264  and  _265
REMARK   98  A    between atoms: _268  and  _270
REMARK   99  A    between atoms: _270  and  _271
REMARK  100  A    between atoms: _270  and  _273
REMARK  101  A    between atoms: _273  and  _274
REMARK  102  A    between atoms: _280  and  _282
REMARK  103  A    between atoms: _282  and  _283
REMARK  104  A    between atoms: _282  and  _285
REMARK  105  A    between atoms: _285  and  _286
REMARK  106  A    between atoms: _290  and  _291
REMARK  107  A    between atoms: _296  and  _298
REMARK  108  A    between atoms: _298  and  _299
REMARK  109  A    between atoms: _298  and  _301
REMARK  110  A    between atoms: _301  and  _302
REMARK  111  A    between atoms: _305  and  _307
REMARK  112  A    between atoms: _307  and  _308
REMARK  113  A    between atoms: _307  and  _310
REMARK  114  A    between atoms: _310  and  _311
REMARK  115  A    between atoms: _317  and  _319
REMARK  116  A    between atoms: _319  and  _320
REMARK  117  A    between atoms: _319  and  _322
REMARK  118  A    between atoms: _322  and  _323
REMARK  119  A    between atoms: _326  and  _328
REMARK  120  A    between atoms: _328  and  _329
REMARK  121  A    between atoms: _328  and  _331
REMARK  122  A    between atoms: _331  and  _332
REMARK  123  A    between atoms: _335  and  _337
REMARK  124  A    between atoms: _337  and  _338
REMARK  125  A    between atoms: _337  and  _340
REMARK  126  A    between atoms: _340  and  _341
REMARK  127  A    between atoms: _345  and  ZN_438
REMARK  128  A    between atoms: _346  and  _348
REMARK  129  A    between atoms: _348  and  _349
REMARK  130  A    between atoms: _352  and  _354
REMARK  131  A    between atoms: _354  and  _355
REMARK  132  A    between atoms: _357  and  _359
REMARK  133  A    between atoms: _359  and  _360
REMARK  134  A    between atoms: _359  and  _362
REMARK  135  A    between atoms: _362  and  _363
REMARK  136  A    between atoms: _366  and  _368
REMARK  137  A    between atoms: _368  and  _369
REMARK  138  A    between atoms: _368  and  _371
REMARK  139  A    between atoms: _374  and  _376
REMARK  140  A    between atoms: _376  and  _377
REMARK  141  A    between atoms: _376  and  _379
REMARK  142  A    between atoms: _379  and  _380
REMARK  143  A    between atoms: _380  and  _381
REMARK  144  A    between atoms: _381  and  _382
REMARK  145  A    between atoms: _382  and  _383
REMARK  146  A    between atoms: _387  and  _389
REMARK  147  A    between atoms: _389  and  _390
REMARK  148  A    between atoms: _389  and  _392
REMARK  149  A    between atoms: _392  and  _393
REMARK  150  A    between atoms: _396  and  _398
REMARK  151  A    between atoms: _398  and  _399
REMARK  152  A    between atoms: _398  and  _401
REMARK  153  A    between atoms: _401  and  _402
REMARK  154  A    between atoms: _405  and  _407
REMARK  155  A    between atoms: _407  and  _408
REMARK  156  A    between atoms: _411  and  _413
REMARK  157  A    between atoms: _413  and  _414
REMARK  158  A    between atoms: _413  and  _416
REMARK  159  A    between atoms: _416  and  _417
REMARK  160  A    between atoms: _422  and  _424
REMARK  161  A    between atoms: _424  and  _425
REMARK  162  A    between atoms: _424  and  _427
REMARK  163  A    between atoms: _427  and  _428
REMARK                            x       y       z     vdW  Elec       q    Type
REMARK                         _______ _______ _______ _____ _____    ______ ____
ROOT
ATOM      1  O   HOH     1     -11.564  18.114  -7.138  0.00  0.00    +0.000 OA
ENDROOT
TORSDOF 0
REMARK  Name = ../refined-set-2016/5c5t/5c5t_pocket.pdb
REMARK  163 active torsions:
REMARK  status: ('A' for Active; 'I' for Inactive)
REMARK    1  A    between atoms: _1  and  _3
REMARK    2  A    between atoms: _3  and  _4
REMARK    3  A    between atoms: _3  and  _6
REMARK    4  A    between atoms: _6  and  _7
REMARK    5  A    between atoms: _7  and  _8
REMARK    6  A    between atoms: _8  and  _9
REMARK    7  A    between atoms: _18  and  _20
REMARK    8  A    between atoms: _20  and  _21
REMARK    9  A    between atoms: _20  and  _23
REMARK   10  A    between atoms: _23  and  _24
REMARK   11  A    between atoms: _26  and  _28
REMARK   12  A    between atoms: _28  and  _29
REMARK   13  A    between atoms: _28  and  _31
REMARK   14  A    between atoms: _31  and  _32
REMARK   15  A    between atoms: _32  and  _33
REMARK   16  A    between atoms: _38  and  _40
REMARK   17  A    between atoms: _40  and  _41
REMARK   18  A    between atoms: _40  and  _43
REMARK   19  A    between atoms: _43  and  _44
REMARK   20  A    between atoms: _44  and  _45
REMARK   21  A    between atoms: _50  and  _52
REMARK   22  A    between atoms: _52  and  _53
REMARK   23  A    between atoms: _56  and  _58
REMARK   24  A    between atoms: _58  and  _59
REMARK   25  A    between atoms: _58  and  _61
REMARK   26  A    between atoms: _61  and  _62
REMARK   27  A    between atoms: _62  and  _63
REMARK   28  A    between atoms: _63  and  _64
REMARK   29  A    between atoms: _73  and  _75
REMARK   30  A    between atoms: _75  and  _76
REMARK   31  A    between atoms: _75  and  _78
REMARK   32  A    between atoms: _78  and  _79
REMARK   33  A    between atoms: _84  and  _85
REMARK   34  A    between atoms: _87  and  _89
REMARK   35  A    between atoms: _89  and  _90
REMARK   36  A    between atoms: _89  and  _92
REMARK   37  A    between atoms: _92  and  _93
REMARK   38  A    between atoms: _93  and  _94
REMARK   39  A    between atoms: _99  and  _101
REMARK   40  A    between atoms: _101  and  _102
REMARK   41  A    between atoms: _101  and  _104
REMARK   42  A    between atoms: _104  and  _105
REMARK   43  A    between atoms: _110  and  _111
REMARK   44  A    between atoms: _113  and  _115
REMARK   45  A    between atoms: _115  and  _116
REMARK   46  A    between atoms: _115  and  _118
REMARK   47  A    between atoms: _118  and  _119
REMARK   48  A    between atoms: _124  and  _125
REMARK   49  A    between atoms: _127  and  _129
REMARK   50  A    between atoms: _129  and  _130
REMARK   51  A    between atoms: _129  and  _132
REMARK   52  A    between atoms: _132  and  _133
REMARK   53  A    between atoms: _138  and  _139
REMARK   54  A    between atoms: _141  and  _143
REMARK   55  A    between atoms: _143  and  _144
REMARK   56  A    between atoms: _143  and  _146
REMARK   57  A    between atoms: _146  and  _147
REMARK   58  A    between atoms: _152  and  _154
REMARK   59  A    between atoms: _165  and  _168
REMARK   60  A    between atoms: _168  and  _169
REMARK   61  A    between atoms: _174  and  _175
REMARK   62  A    between atoms: _179  and  _180
REMARK   63  A    between atoms: _186  and  _188
REMARK   64  A    between atoms: _188  and  _189
REMARK   65  A    between atoms: _188  and  _191
REMARK   66  A    between atoms: _191  and  _192
REMARK   67  A    between atoms: _192  and  _193
REMARK   68  A    between atoms: _193  and  _194
REMARK   69  A    between atoms: _203  and  _205
REMARK   70  A    between atoms: _205  and  _206
REMARK   71  A    between atoms: _205  and  _208
REMARK   72  A    between atoms: _208  and  _209
REMARK   73  A    between atoms: _212  and  _214
REMARK   74  A    between atoms: _214  and  _215
REMARK   75  A    between atoms: _214  and  _217
REMARK   76  A    between atoms: _217  and  _218
REMARK   77  A    between atoms: _218  and  _219
REMARK   78  A    between atoms: _221  and  _223
REMARK   79  A    between atoms: _223  and  _224
REMARK   80  A    between atoms: _223  and  _226
REMARK   81  A    between atoms: _226  and  _227
REMARK   82  A    between atoms: _232  and  _233
REMARK   83  A    between atoms: _235  and  _237
REMARK   84  A    between atoms: _237  and  _238
REMARK   85  A    between atoms: _240  and  _242
REMARK   86  A    between atoms: _242  and  _243
REMARK   87  A    between atoms: _242  and  _245
REMARK   88  A    between atoms: _245  and  _246
REMARK   89  A    between atoms: _246  and  _247
REMARK   90  A    between atoms: _250  and  _252
REMARK   91  A    between atoms: _252  and  _253
REMARK   92  A    between atoms: _252  and  _255
REMARK   93  A    between atoms: _255  and  _256
REMARK   94  A    between atoms: _259  and  _261
REMARK   95  A    between atoms: _261  and  _262
REMARK   96  A    between atoms: _261  and  _264
REMARK   97  A    between atoms: _264  and  _265
REMARK   98  A    between atoms: _268  and  _270
REMARK   99  A    between atoms: _270  and  _271
REMARK  100  A    between atoms: _270  and  _273
REMARK  101  A    between atoms: _273  and  _274
REMARK  102  A    between atoms: _280  and  _282
REMARK  103  A    between atoms: _282  and  _283
REMARK  104  A    between atoms: _282  and  _285
REMARK  105  A    between atoms: _285  and  _286
REMARK  106  A    between atoms: _290  and  _291
REMARK  107  A    between atoms: _296  and  _298
REMARK  108  A    between atoms: _298  and  _299
REMARK  109  A    between atoms: _298  and  _301
REMARK  110  A    between atoms: _301  and  _302
REMARK  111  A    between atoms: _305  and  _307
REMARK  112  A    between atoms: _307  and  _308
REMARK  113  A    between atoms: _307  and  _310
REMARK  114  A    between atoms: _310  and  _311
REMARK  115  A    between atoms: _317  and  _319
REMARK  116  A    between atoms: _319  and  _320
REMARK  117  A    between atoms: _319  and  _322
REMARK  118  A    between atoms: _322  and  _323
REMARK  119  A    between atoms: _326  and  _328
REMARK  120  A    between atoms: _328  and  _329
REMARK  121  A    between atoms: _328  and  _331
REMARK  122  A    between atoms: _331  and  _332
REMARK  123  A    between atoms: _335  and  _337
REMARK  124  A    between atoms: _337  and  _338
REMARK  125  A    between atoms: _337  and  _340
REMARK  126  A    between atoms: _340  and  _341
REMARK  127  A    between atoms: _345  and  ZN_438
REMARK  128  A    between atoms: _346  and  _348
REMARK  129  A    between atoms: _348  and  _349
REMARK  130  A    between atoms: _352  and  _354
REMARK  131  A    between atoms: _354  and  _355
REMARK  132  A    between atoms: _357  and  _359
REMARK  133  A    between atoms: _359  and  _360
REMARK  134  A    between atoms: _359  and  _362
REMARK  135  A    between atoms: _362  and  _363
REMARK  136  A    between atoms: _366  and  _368
REMARK  137  A    between atoms: _368  and  _369
REMARK  138  A    between atoms: _368  and  _371
REMARK  139  A    between atoms: _374  and  _376
REMARK  140  A    between atoms: _376  and  _377
REMARK  141  A    between atoms: _376  and  _379
REMARK  142  A    between atoms: _379  and  _380
REMARK  143  A    between atoms: _380  and  _381
REMARK  144  A    between atoms: _381  and  _382
REMARK  145  A    between atoms: _382  and  _383
REMARK  146  A    between atoms: _387  and  _389
REMARK  147  A    between atoms: _389  and  _390
REMARK  148  A    between atoms: _389  and  _392
REMARK  149  A    between atoms: _392  and  _393
REMARK  150  A    between atoms: _396  and  _398
REMARK  151  A    between atoms: _398  and  _399
REMARK  152  A    between atoms: _398  and  _401
REMARK  153  A    between atoms: _401  and  _402
REMARK  154  A    between atoms: _405  and  _407
REMARK  155  A    between atoms: _407  and  _408
REMARK  156  A    between atoms: _411  and  _413
REMARK  157  A    between atoms: _413  and  _414
REMARK  158  A    between atoms: _413  and  _416
REMARK  159  A    between atoms: _416  and  _417
REMARK  160  A    between atoms: _422  and  _424
REMARK  161  A    between atoms: _424  and  _425
REMARK  162  A    between atoms: _424  and  _427
REMARK  163  A    between atoms: _427  and  _428
REMARK                            x       y       z     vdW  Elec       q    Type
REMARK                         _______ _______ _______ _____ _____    ______ ____
ROOT
ATOM      1  O   HOH     1     -15.802  11.291  -6.305  0.00  0.00    +0.000 OA
ENDROOT
TORSDOF 0
