REMARK  Name = ../refined-set-2016/1gi4/1gi4_pocket.pdb
REMARK  145 active torsions:
REMARK  status: ('A' for Active; 'I' for Inactive)
REMARK    1  A    between atoms: _1  and  _5
REMARK    2  A    between atoms: _5  and  _6
REMARK    3  A    between atoms: _5  and  _8
REMARK    4  A    between atoms: _8  and  _9
REMARK    5  A    between atoms: _12  and  _14
REMARK    6  A    between atoms: _14  and  _15
REMARK    7  A    between atoms: _14  and  _17
REMARK    8  A    between atoms: _20  and  _22
REMARK    9  A    between atoms: _22  and  _23
REMARK   10  A    between atoms: _22  and  _25
REMARK   11  A    between atoms: _25  and  _26
REMARK   12  A    between atoms: _32  and  _34
REMARK   13  A    between atoms: _34  and  _35
REMARK   14  A    between atoms: _34  and  _37
REMARK   15  A    between atoms: _37  and  _38
REMARK   16  A    between atoms: _38  and  _62
REMARK   17  A    between atoms: _39  and  _41
REMARK   18  A    between atoms: _41  and  _42
REMARK   19  A    between atoms: _45  and  _47
REMARK   20  A    between atoms: _47  and  _48
REMARK   21  A    between atoms: _47  and  _50
REMARK   22  A    between atoms: _50  and  _51
REMARK   23  A    between atoms: _56  and  _58
REMARK   24  A    between atoms: _58  and  _59
REMARK   25  A    between atoms: _58  and  _61
REMARK   26  A    between atoms: _61  and  _62
REMARK   27  A    between atoms: _63  and  _65
REMARK   28  A    between atoms: _65  and  _66
REMARK   29  A    between atoms: _65  and  _68
REMARK   30  A    between atoms: _68  and  _69
REMARK   31  A    between atoms: _72  and  _74
REMARK   32  A    between atoms: _74  and  _75
REMARK   33  A    between atoms: _74  and  _77
REMARK   34  A    between atoms: _77  and  _78
REMARK   35  A    between atoms: _81  and  _83
REMARK   36  A    between atoms: _83  and  _84
REMARK   37  A    between atoms: _83  and  _86
REMARK   38  A    between atoms: _86  and  _87
REMARK   39  A    between atoms: _90  and  _92
REMARK   40  A    between atoms: _92  and  _93
REMARK   41  A    between atoms: _92  and  _95
REMARK   42  A    between atoms: _95  and  _96
REMARK   43  A    between atoms: _101  and  _103
REMARK   44  A    between atoms: _103  and  _104
REMARK   45  A    between atoms: _103  and  _106
REMARK   46  A    between atoms: _106  and  _107
REMARK   47  A    between atoms: _112  and  _113
REMARK   48  A    between atoms: _115  and  _117
REMARK   49  A    between atoms: _117  and  _118
REMARK   50  A    between atoms: _117  and  _120
REMARK   51  A    between atoms: _120  and  _121
REMARK   52  A    between atoms: _126  and  _127
REMARK   53  A    between atoms: _129  and  _131
REMARK   54  A    between atoms: _131  and  _132
REMARK   55  A    between atoms: _135  and  _137
REMARK   56  A    between atoms: _137  and  _138
REMARK   57  A    between atoms: _137  and  _140
REMARK   58  A    between atoms: _140  and  _141
REMARK   59  A    between atoms: _141  and  _142
REMARK   60  A    between atoms: _142  and  _143
REMARK   61  A    between atoms: _143  and  _144
REMARK   62  A    between atoms: _148  and  _150
REMARK   63  A    between atoms: _150  and  _151
REMARK   64  A    between atoms: _150  and  _153
REMARK   65  A    between atoms: _153  and  _154
REMARK   66  A    between atoms: _157  and  _159
REMARK   67  A    between atoms: _159  and  _160
REMARK   68  A    between atoms: _159  and  _162
REMARK   69  A    between atoms: _162  and  _163
REMARK   70  A    between atoms: _165  and  _167
REMARK   71  A    between atoms: _167  and  _168
REMARK   72  A    between atoms: _167  and  _170
REMARK   73  A    between atoms: _170  and  _171
REMARK   74  A    between atoms: _171  and  _281
REMARK   75  A    between atoms: _172  and  _174
REMARK   76  A    between atoms: _174  and  _175
REMARK   77  A    between atoms: _174  and  _177
REMARK   78  A    between atoms: _177  and  _178
REMARK   79  A    between atoms: _178  and  _179
REMARK   80  A    between atoms: _184  and  _186
REMARK   81  A    between atoms: _186  and  _187
REMARK   82  A    between atoms: _189  and  _191
REMARK   83  A    between atoms: _191  and  _192
REMARK   84  A    between atoms: _191  and  _194
REMARK   85  A    between atoms: _194  and  _195
REMARK   86  A    between atoms: _198  and  _200
REMARK   87  A    between atoms: _200  and  _201
REMARK   88  A    between atoms: _200  and  _203
REMARK   89  A    between atoms: _203  and  _204
REMARK   90  A    between atoms: _206  and  _208
REMARK   91  A    between atoms: _208  and  _209
REMARK   92  A    between atoms: _211  and  _213
REMARK   93  A    between atoms: _213  and  _214
REMARK   94  A    between atoms: _216  and  _218
REMARK   95  A    between atoms: _218  and  _219
REMARK   96  A    between atoms: _218  and  _221
REMARK   97  A    between atoms: _221  and  _222
REMARK   98  A    between atoms: _225  and  _227
REMARK   99  A    between atoms: _227  and  _228
REMARK  100  A    between atoms: _227  and  _230
REMARK  101  A    between atoms: _233  and  _235
REMARK  102  A    between atoms: _235  and  _236
REMARK  103  A    between atoms: _235  and  _238
REMARK  104  A    between atoms: _238  and  _239
REMARK  105  A    between atoms: _241  and  _243
REMARK  106  A    between atoms: _243  and  _244
REMARK  107  A    between atoms: _243  and  _246
REMARK  108  A    between atoms: _246  and  _247
REMARK  109  A    between atoms: _257  and  _259
REMARK  110  A    between atoms: _259  and  _260
REMARK  111  A    between atoms: _262  and  _264
REMARK  112  A    between atoms: _264  and  _265
REMARK  113  A    between atoms: _264  and  _267
REMARK  114  A    between atoms: _267  and  _268
REMARK  115  A    between atoms: _270  and  _272
REMARK  116  A    between atoms: _272  and  _273
REMARK  117  A    between atoms: _275  and  _277
REMARK  118  A    between atoms: _277  and  _278
REMARK  119  A    between atoms: _277  and  _280
REMARK  120  A    between atoms: _280  and  _281
REMARK  121  A    between atoms: _282  and  _284
REMARK  122  A    between atoms: _284  and  _285
REMARK  123  A    between atoms: _288  and  _290
REMARK  124  A    between atoms: _290  and  _291
REMARK  125  A    between atoms: _290  and  _293
REMARK  126  A    between atoms: _293  and  _294
REMARK  127  A    between atoms: _294  and  _295
REMARK  128  A    between atoms: _300  and  _302
REMARK  129  A    between atoms: _302  and  _303
REMARK  130  A    between atoms: _302  and  _305
REMARK  131  A    between atoms: _305  and  _306
REMARK  132  A    between atoms: _306  and  _307
REMARK  133  A    between atoms: _307  and  _308
REMARK  134  A    between atoms: _308  and  _309
REMARK  135  A    between atoms: _314  and  _315
REMARK  136  A    between atoms: _320  and  _322
REMARK  137  A    between atoms: _322  and  _323
REMARK  138  A    between atoms: _325  and  _327
REMARK  139  A    between atoms: _327  and  _328
REMARK  140  A    between atoms: _327  and  _330
REMARK  141  A    between atoms: _333  and  _335
REMARK  142  A    between atoms: _335  and  _336
REMARK  143  A    between atoms: _335  and  _338
REMARK  144  A    between atoms: _338  and  _339
REMARK  145  A    between atoms: _344  and  _345
REMARK                            x       y       z     vdW  Elec       q    Type
REMARK                         _______ _______ _______ _____ _____    ______ ____
ROOT
ATOM      1  C   ILE A   1      53.013  -5.033  25.359  0.00  0.00    +0.202 C 
ATOM      2  O   ILE A   1      54.014  -5.425  25.935  0.00  0.00    -0.277 OA
ATOM      3  N   VAL A   2      52.218  -5.795  24.653  0.00  0.00    -0.301 N 
ATOM      4  H   VAL A   2      51.394  -5.366  24.186  0.00  0.00    +0.150 HD
ENDROOT
BRANCH   1   5
ATOM      5  CA  ILE A   1      52.623  -3.538  25.417  0.00  0.00    +0.013 C 
BRANCH   5   6
ATOM      6  N   ILE A   1      52.575  -3.241  26.878  0.00  0.00    +0.387 N 
ATOM      7  H1  ILE A   1      51.866  -3.852  27.332  0.00  0.00    -0.089 HD
ATOM      8  H2  ILE A   1      53.509  -3.422  27.298  0.00  0.00    -0.089 HD
ATOM      9  H3  ILE A   1      52.317  -2.244  27.019  0.00  0.00    -0.089 HD
ENDBRANCH   5   6
BRANCH   5  10
ATOM     10  CB  ILE A   1      53.726  -2.669  24.696  0.00  0.00    -0.011 C 
ATOM     11  CG2 ILE A   1      53.882  -3.057  23.174  0.00  0.00    -0.002 C 
BRANCH  10  12
ATOM     12  CG1 ILE A   1      53.496  -1.118  24.845  0.00  0.00    -0.002 C 
ATOM     13  CD1 ILE A   1      52.261  -0.607  24.036  0.00  0.00    -0.000 C 
ENDBRANCH  10  12
ENDBRANCH   5  10
ENDBRANCH   1   5
BRANCH   3  14
ATOM     14  CA  VAL A   2      52.452  -7.238  24.499  0.00  0.00    +0.137 C 
BRANCH  14  15
ATOM     15  CB  VAL A   2      51.108  -7.964  24.686  0.00  0.00    +0.026 C 
ATOM     16  CG2 VAL A   2      50.512  -7.646  26.077  0.00  0.00    +0.002 C 
ATOM     17  CG1 VAL A   2      51.317  -9.485  24.556  0.00  0.00    +0.002 C 
ENDBRANCH  14  15
BRANCH  14  18
ATOM     18  C   VAL A   2      52.973  -7.384  23.063  0.00  0.00    +0.227 C 
ATOM     19  O   VAL A   2      52.403  -6.814  22.156  0.00  0.00    -0.286 OA
ENDBRANCH  14  18
ENDBRANCH   3  14
TORSDOF 7
REMARK  Name = ../refined-set-2016/1gi4/1gi4_pocket.pdb
REMARK  145 active torsions:
REMARK  status: ('A' for Active; 'I' for Inactive)
REMARK    1  A    between atoms: _1  and  _5
REMARK    2  A    between atoms: _5  and  _6
REMARK    3  A    between atoms: _5  and  _8
REMARK    4  A    between atoms: _8  and  _9
REMARK    5  A    between atoms: _12  and  _14
REMARK    6  A    between atoms: _14  and  _15
REMARK    7  A    between atoms: _14  and  _17
REMARK    8  A    between atoms: _20  and  _22
REMARK    9  A    between atoms: _22  and  _23
REMARK   10  A    between atoms: _22  and  _25
REMARK   11  A    between atoms: _25  and  _26
REMARK   12  A    between atoms: _32  and  _34
REMARK   13  A    between atoms: _34  and  _35
REMARK   14  A    between atoms: _34  and  _37
REMARK   15  A    between atoms: _37  and  _38
REMARK   16  A    between atoms: _38  and  _62
REMARK   17  A    between atoms: _39  and  _41
REMARK   18  A    between atoms: _41  and  _42
REMARK   19  A    between atoms: _45  and  _47
REMARK   20  A    between atoms: _47  and  _48
REMARK   21  A    between atoms: _47  and  _50
REMARK   22  A    between atoms: _50  and  _51
REMARK   23  A    between atoms: _56  and  _58
REMARK   24  A    between atoms: _58  and  _59
REMARK   25  A    between atoms: _58  and  _61
REMARK   26  A    between atoms: _61  and  _62
REMARK   27  A    between atoms: _63  and  _65
REMARK   28  A    between atoms: _65  and  _66
REMARK   29  A    between atoms: _65  and  _68
REMARK   30  A    between atoms: _68  and  _69
REMARK   31  A    between atoms: _72  and  _74
REMARK   32  A    between atoms: _74  and  _75
REMARK   33  A    between atoms: _74  and  _77
REMARK   34  A    between atoms: _77  and  _78
REMARK   35  A    between atoms: _81  and  _83
REMARK   36  A    between atoms: _83  and  _84
REMARK   37  A    between atoms: _83  and  _86
REMARK   38  A    between atoms: _86  and  _87
REMARK   39  A    between atoms: _90  and  _92
REMARK   40  A    between atoms: _92  and  _93
REMARK   41  A    between atoms: _92  and  _95
REMARK   42  A    between atoms: _95  and  _96
REMARK   43  A    between atoms: _101  and  _103
REMARK   44  A    between atoms: _103  and  _104
REMARK   45  A    between atoms: _103  and  _106
REMARK   46  A    between atoms: _106  and  _107
REMARK   47  A    between atoms: _112  and  _113
REMARK   48  A    between atoms: _115  and  _117
REMARK   49  A    between atoms: _117  and  _118
REMARK   50  A    between atoms: _117  and  _120
REMARK   51  A    between atoms: _120  and  _121
REMARK   52  A    between atoms: _126  and  _127
REMARK   53  A    between atoms: _129  and  _131
REMARK   54  A    between atoms: _131  and  _132
REMARK   55  A    between atoms: _135  and  _137
REMARK   56  A    between atoms: _137  and  _138
REMARK   57  A    between atoms: _137  and  _140
REMARK   58  A    between atoms: _140  and  _141
REMARK   59  A    between atoms: _141  and  _142
REMARK   60  A    between atoms: _142  and  _143
REMARK   61  A    between atoms: _143  and  _144
REMARK   62  A    between atoms: _148  and  _150
REMARK   63  A    between atoms: _150  and  _151
REMARK   64  A    between atoms: _150  and  _153
REMARK   65  A    between atoms: _153  and  _154
REMARK   66  A    between atoms: _157  and  _159
REMARK   67  A    between atoms: _159  and  _160
REMARK   68  A    between atoms: _159  and  _162
REMARK   69  A    between atoms: _162  and  _163
REMARK   70  A    between atoms: _165  and  _167
REMARK   71  A    between atoms: _167  and  _168
REMARK   72  A    between atoms: _167  and  _170
REMARK   73  A    between atoms: _170  and  _171
REMARK   74  A    between atoms: _171  and  _281
REMARK   75  A    between atoms: _172  and  _174
REMARK   76  A    between atoms: _174  and  _175
REMARK   77  A    between atoms: _174  and  _177
REMARK   78  A    between atoms: _177  and  _178
REMARK   79  A    between atoms: _178  and  _179
REMARK   80  A    between atoms: _184  and  _186
REMARK   81  A    between atoms: _186  and  _187
REMARK   82  A    between atoms: _189  and  _191
REMARK   83  A    between atoms: _191  and  _192
REMARK   84  A    between atoms: _191  and  _194
REMARK   85  A    between atoms: _194  and  _195
REMARK   86  A    between atoms: _198  and  _200
REMARK   87  A    between atoms: _200  and  _201
REMARK   88  A    between atoms: _200  and  _203
REMARK   89  A    between atoms: _203  and  _204
REMARK   90  A    between atoms: _206  and  _208
REMARK   91  A    between atoms: _208  and  _209
REMARK   92  A    between atoms: _211  and  _213
REMARK   93  A    between atoms: _213  and  _214
REMARK   94  A    between atoms: _216  and  _218
REMARK   95  A    between atoms: _218  and  _219
REMARK   96  A    between atoms: _218  and  _221
REMARK   97  A    between atoms: _221  and  _222
REMARK   98  A    between atoms: _225  and  _227
REMARK   99  A    between atoms: _227  and  _228
REMARK  100  A    between atoms: _227  and  _230
REMARK  101  A    between atoms: _233  and  _235
REMARK  102  A    between atoms: _235  and  _236
REMARK  103  A    between atoms: _235  and  _238
REMARK  104  A    between atoms: _238  and  _239
REMARK  105  A    between atoms: _241  and  _243
REMARK  106  A    between atoms: _243  and  _244
REMARK  107  A    between atoms: _243  and  _246
REMARK  108  A    between atoms: _246  and  _247
REMARK  109  A    between atoms: _257  and  _259
REMARK  110  A    between atoms: _259  and  _260
REMARK  111  A    between atoms: _262  and  _264
REMARK  112  A    between atoms: _264  and  _265
REMARK  113  A    between atoms: _264  and  _267
REMARK  114  A    between atoms: _267  and  _268
REMARK  115  A    between atoms: _270  and  _272
REMARK  116  A    between atoms: _272  and  _273
REMARK  117  A    between atoms: _275  and  _277
REMARK  118  A    between atoms: _277  and  _278
REMARK  119  A    between atoms: _277  and  _280
REMARK  120  A    between atoms: _280  and  _281
REMARK  121  A    between atoms: _282  and  _284
REMARK  122  A    between atoms: _284  and  _285
REMARK  123  A    between atoms: _288  and  _290
REMARK  124  A    between atoms: _290  and  _291
REMARK  125  A    between atoms: _290  and  _293
REMARK  126  A    between atoms: _293  and  _294
REMARK  127  A    between atoms: _294  and  _295
REMARK  128  A    between atoms: _300  and  _302
REMARK  129  A    between atoms: _302  and  _303
REMARK  130  A    between atoms: _302  and  _305
REMARK  131  A    between atoms: _305  and  _306
REMARK  132  A    between atoms: _306  and  _307
REMARK  133  A    between atoms: _307  and  _308
REMARK  134  A    between atoms: _308  and  _309
REMARK  135  A    between atoms: _314  and  _315
REMARK  136  A    between atoms: _320  and  _322
REMARK  137  A    between atoms: _322  and  _323
REMARK  138  A    between atoms: _325  and  _327
REMARK  139  A    between atoms: _327  and  _328
REMARK  140  A    between atoms: _327  and  _330
REMARK  141  A    between atoms: _333  and  _335
REMARK  142  A    between atoms: _335  and  _336
REMARK  143  A    between atoms: _335  and  _338
REMARK  144  A    between atoms: _338  and  _339
REMARK  145  A    between atoms: _344  and  _345
REMARK                            x       y       z     vdW  Elec       q    Type
REMARK                         _______ _______ _______ _____ _____    ______ ____
ROOT
ATOM      1  SG  CYS A   2      46.075   5.133  33.357  0.00  0.00    +0.000 S 
ENDROOT
BRANCH   1   2
ATOM      2  SG  CYS A   2      44.864   6.231  32.193  0.00  0.00    +0.000 S 
BRANCH   2   3
ATOM      3  CB  CYS A   2      44.307   7.536  33.310  0.00  0.00    +0.000 C 
BRANCH   3   4
ATOM      4  CA  CYS A   2      43.178   7.089  34.192  0.00  0.00    +0.000 C 
BRANCH   4   5
ATOM      5  N   CYS A   2      41.895   7.019  33.446  0.00  0.00    +0.000 N 
ATOM      6  C   UNK A   1      41.008   6.093  33.712  0.00  0.00    +0.000 C 
ATOM      7  O   UNK A   1      41.156   5.234  34.566  0.00  0.00    +0.000 OA
ATOM      8  H   CYS A   2      41.698   7.717  32.700  0.00  0.00    +0.000 HD
BRANCH   6   9
ATOM      9  C   UNK A   1      39.709   6.128  32.909  0.00  0.00    +0.000 C 
BRANCH   9  10
ATOM     10  N   UNK A   1      39.713   7.221  31.915  0.00  0.00    +0.000 NA
ATOM     11  H   UNK A   1      39.835   7.038  30.899  0.00  0.00    +0.000 HD
ENDBRANCH   9  10
BRANCH   9  12
ATOM     12  C   UNK A   1      39.446   4.733  32.261  0.00  0.00    +0.000 C 
BRANCH  12  13
ATOM     13  C   UNK A   1      40.548   4.042  31.450  0.00  0.00    +0.000 A 
ATOM     14  C   UNK A   1      41.500   3.067  31.823  0.00  0.00    +0.000 A 
ATOM     15  N   UNK A   1      42.218   2.774  30.756  0.00  0.00    +0.000 N 
ATOM     16 ZN   UNK A   1      43.483   1.111  30.873  0.00  0.00    +0.000 Zn
ATOM     17  C   UNK A   1      41.784   3.495  29.753  0.00  0.00    +0.000 A 
ATOM     18  N   UNK A   1      40.799   4.239  30.174  0.00  0.00    +0.000 NA
ENDBRANCH  12  13
ENDBRANCH   9  12
ENDBRANCH   6   9
ENDBRANCH   4   5
BRANCH   4  19
ATOM     19  C   CYS A   2      43.010   8.151  35.285  0.00  0.00    +0.000 C 
ATOM     20  O   CYS A   2      43.932   8.442  36.025  0.00  0.00    +0.000 OA
ENDBRANCH   4  19
ENDBRANCH   3   4
ENDBRANCH   2   3
ENDBRANCH   1   2
BRANCH   1  21
ATOM     21  CB  CYS A   2      47.645   6.041  33.110  0.00  0.00    +0.000 C 
BRANCH  21  22
ATOM     22  CA  CYS A   2      48.992   5.232  33.015  0.00  0.00    +0.000 C 
BRANCH  22  25
ATOM     23  C   UNK A   1      49.005   3.950  35.066  0.00  0.00    +0.000 C 
ATOM     24  O   UNK A   1      48.109   3.274  34.628  0.00  0.00    +0.000 OA
ATOM     25  N   CYS A   2      49.515   4.927  34.377  0.00  0.00    +0.000 N 
ATOM     26  H   CYS A   2      50.288   5.496  34.776  0.00  0.00    +0.000 HD
BRANCH  23  27
ATOM     27  C   UNK A   1      49.572   3.648  36.487  0.00  0.00    +0.000 C 
BRANCH  27  28
ATOM     28  N   UNK A   1      50.908   4.286  36.647  0.00  0.00    +0.000 NA
ATOM     29  H   UNK A   1      51.043   5.304  36.484  0.00  0.00    +0.000 HD
ENDBRANCH  27  28
BRANCH  27  30
ATOM     30  C   UNK A   1      48.607   4.149  37.601  0.00  0.00    +0.000 C 
BRANCH  30  31
ATOM     31  C   UNK A   1      48.317   5.632  37.562  0.00  0.00    +0.000 A 
ATOM     32  C   UNK A   1      49.088   6.548  38.260  0.00  0.00    +0.000 A 
ATOM     33  C   UNK A   1      48.802   7.903  38.228  0.00  0.00    +0.000 A 
ATOM     34  C   UNK A   1      47.739   8.356  37.492  0.00  0.00    +0.000 A 
ATOM     35  C   UNK A   1      46.978   7.447  36.801  0.00  0.00    +0.000 A 
ATOM     36  C   UNK A   1      47.253   6.092  36.825  0.00  0.00    +0.000 A 
ENDBRANCH  30  31
ENDBRANCH  27  30
ENDBRANCH  23  27
ENDBRANCH  22  25
BRANCH  22  37
ATOM     37  C   CYS A   2      49.990   6.067  32.238  0.00  0.00    +0.000 C 
ATOM     38  O   CYS A   2      50.907   6.614  32.809  0.00  0.00    +0.000 OA
ENDBRANCH  22  37
ENDBRANCH  21  22
ENDBRANCH   1  21
TORSDOF 17
REMARK  Name = ../refined-set-2016/1gi4/1gi4_pocket.pdb
REMARK  145 active torsions:
REMARK  status: ('A' for Active; 'I' for Inactive)
REMARK    1  A    between atoms: _1  and  _5
REMARK    2  A    between atoms: _5  and  _6
REMARK    3  A    between atoms: _5  and  _8
REMARK    4  A    between atoms: _8  and  _9
REMARK    5  A    between atoms: _12  and  _14
REMARK    6  A    between atoms: _14  and  _15
REMARK    7  A    between atoms: _14  and  _17
REMARK    8  A    between atoms: _20  and  _22
REMARK    9  A    between atoms: _22  and  _23
REMARK   10  A    between atoms: _22  and  _25
REMARK   11  A    between atoms: _25  and  _26
REMARK   12  A    between atoms: _32  and  _34
REMARK   13  A    between atoms: _34  and  _35
REMARK   14  A    between atoms: _34  and  _37
REMARK   15  A    between atoms: _37  and  _38
REMARK   16  A    between atoms: _38  and  _62
REMARK   17  A    between atoms: _39  and  _41
REMARK   18  A    between atoms: _41  and  _42
REMARK   19  A    between atoms: _45  and  _47
REMARK   20  A    between atoms: _47  and  _48
REMARK   21  A    between atoms: _47  and  _50
REMARK   22  A    between atoms: _50  and  _51
REMARK   23  A    between atoms: _56  and  _58
REMARK   24  A    between atoms: _58  and  _59
REMARK   25  A    between atoms: _58  and  _61
REMARK   26  A    between atoms: _61  and  _62
REMARK   27  A    between atoms: _63  and  _65
REMARK   28  A    between atoms: _65  and  _66
REMARK   29  A    between atoms: _65  and  _68
REMARK   30  A    between atoms: _68  and  _69
REMARK   31  A    between atoms: _72  and  _74
REMARK   32  A    between atoms: _74  and  _75
REMARK   33  A    between atoms: _74  and  _77
REMARK   34  A    between atoms: _77  and  _78
REMARK   35  A    between atoms: _81  and  _83
REMARK   36  A    between atoms: _83  and  _84
REMARK   37  A    between atoms: _83  and  _86
REMARK   38  A    between atoms: _86  and  _87
REMARK   39  A    between atoms: _90  and  _92
REMARK   40  A    between atoms: _92  and  _93
REMARK   41  A    between atoms: _92  and  _95
REMARK   42  A    between atoms: _95  and  _96
REMARK   43  A    between atoms: _101  and  _103
REMARK   44  A    between atoms: _103  and  _104
REMARK   45  A    between atoms: _103  and  _106
REMARK   46  A    between atoms: _106  and  _107
REMARK   47  A    between atoms: _112  and  _113
REMARK   48  A    between atoms: _115  and  _117
REMARK   49  A    between atoms: _117  and  _118
REMARK   50  A    between atoms: _117  and  _120
REMARK   51  A    between atoms: _120  and  _121
REMARK   52  A    between atoms: _126  and  _127
REMARK   53  A    between atoms: _129  and  _131
REMARK   54  A    between atoms: _131  and  _132
REMARK   55  A    between atoms: _135  and  _137
REMARK   56  A    between atoms: _137  and  _138
REMARK   57  A    between atoms: _137  and  _140
REMARK   58  A    between atoms: _140  and  _141
REMARK   59  A    between atoms: _141  and  _142
REMARK   60  A    between atoms: _142  and  _143
REMARK   61  A    between atoms: _143  and  _144
REMARK   62  A    between atoms: _148  and  _150
REMARK   63  A    between atoms: _150  and  _151
REMARK   64  A    between atoms: _150  and  _153
REMARK   65  A    between atoms: _153  and  _154
REMARK   66  A    between atoms: _157  and  _159
REMARK   67  A    between atoms: _159  and  _160
REMARK   68  A    between atoms: _159  and  _162
REMARK   69  A    between atoms: _162  and  _163
REMARK   70  A    between atoms: _165  and  _167
REMARK   71  A    between atoms: _167  and  _168
REMARK   72  A    between atoms: _167  and  _170
REMARK   73  A    between atoms: _170  and  _171
REMARK   74  A    between atoms: _171  and  _281
REMARK   75  A    between atoms: _172  and  _174
REMARK   76  A    between atoms: _174  and  _175
REMARK   77  A    between atoms: _174  and  _177
REMARK   78  A    between atoms: _177  and  _178
REMARK   79  A    between atoms: _178  and  _179
REMARK   80  A    between atoms: _184  and  _186
REMARK   81  A    between atoms: _186  and  _187
REMARK   82  A    between atoms: _189  and  _191
REMARK   83  A    between atoms: _191  and  _192
REMARK   84  A    between atoms: _191  and  _194
REMARK   85  A    between atoms: _194  and  _195
REMARK   86  A    between atoms: _198  and  _200
REMARK   87  A    between atoms: _200  and  _201
REMARK   88  A    between atoms: _200  and  _203
REMARK   89  A    between atoms: _203  and  _204
REMARK   90  A    between atoms: _206  and  _208
REMARK   91  A    between atoms: _208  and  _209
REMARK   92  A    between atoms: _211  and  _213
REMARK   93  A    between atoms: _213  and  _214
REMARK   94  A    between atoms: _216  and  _218
REMARK   95  A    between atoms: _218  and  _219
REMARK   96  A    between atoms: _218  and  _221
REMARK   97  A    between atoms: _221  and  _222
REMARK   98  A    between atoms: _225  and  _227
REMARK   99  A    between atoms: _227  and  _228
REMARK  100  A    between atoms: _227  and  _230
REMARK  101  A    between atoms: _233  and  _235
REMARK  102  A    between atoms: _235  and  _236
REMARK  103  A    between atoms: _235  and  _238
REMARK  104  A    between atoms: _238  and  _239
REMARK  105  A    between atoms: _241  and  _243
REMARK  106  A    between atoms: _243  and  _244
REMARK  107  A    between atoms: _243  and  _246
REMARK  108  A    between atoms: _246  and  _247
REMARK  109  A    between atoms: _257  and  _259
REMARK  110  A    between atoms: _259  and  _260
REMARK  111  A    between atoms: _262  and  _264
REMARK  112  A    between atoms: _264  and  _265
REMARK  113  A    between atoms: _264  and  _267
REMARK  114  A    between atoms: _267  and  _268
REMARK  115  A    between atoms: _270  and  _272
REMARK  116  A    between atoms: _272  and  _273
REMARK  117  A    between atoms: _275  and  _277
REMARK  118  A    between atoms: _277  and  _278
REMARK  119  A    between atoms: _277  and  _280
REMARK  120  A    between atoms: _280  and  _281
REMARK  121  A    between atoms: _282  and  _284
REMARK  122  A    between atoms: _284  and  _285
REMARK  123  A    between atoms: _288  and  _290
REMARK  124  A    between atoms: _290  and  _291
REMARK  125  A    between atoms: _290  and  _293
REMARK  126  A    between atoms: _293  and  _294
REMARK  127  A    between atoms: _294  and  _295
REMARK  128  A    between atoms: _300  and  _302
REMARK  129  A    between atoms: _302  and  _303
REMARK  130  A    between atoms: _302  and  _305
REMARK  131  A    between atoms: _305  and  _306
REMARK  132  A    between atoms: _306  and  _307
REMARK  133  A    between atoms: _307  and  _308
REMARK  134  A    between atoms: _308  and  _309
REMARK  135  A    between atoms: _314  and  _315
REMARK  136  A    between atoms: _320  and  _322
REMARK  137  A    between atoms: _322  and  _323
REMARK  138  A    between atoms: _325  and  _327
REMARK  139  A    between atoms: _327  and  _328
REMARK  140  A    between atoms: _327  and  _330
REMARK  141  A    between atoms: _333  and  _335
REMARK  142  A    between atoms: _335  and  _336
REMARK  143  A    between atoms: _335  and  _338
REMARK  144  A    between atoms: _338  and  _339
REMARK  145  A    between atoms: _344  and  _345
REMARK                            x       y       z     vdW  Elec       q    Type
REMARK                         _______ _______ _______ _____ _____    ______ ____
ROOT
ATOM      1  CA  ALA A   1      42.440   8.741  29.091  0.00  0.00    +0.133 C 
ATOM      2  CB  ALA A   1      42.552   7.203  28.985  0.00  0.00    +0.027 C 
ENDROOT
BRANCH   1   3
ATOM      3  N   ALA A   1      43.798   9.344  29.113  0.00  0.00    -0.239 NA
ATOM      4  H   ALA A   1      44.553   8.889  29.665  0.00  0.00    +0.142 HD
ENDBRANCH   1   3
BRANCH   1   5
ATOM      5  C   ALA A   1      41.689   9.098  30.375  0.00  0.00    +0.224 C 
ATOM      6  O   ALA A   1      42.260   9.225  31.435  0.00  0.00    -0.287 OA
ENDBRANCH   1   5
TORSDOF 2
REMARK  Name = ../refined-set-2016/1gi4/1gi4_pocket.pdb
REMARK  145 active torsions:
REMARK  status: ('A' for Active; 'I' for Inactive)
REMARK    1  A    between atoms: _1  and  _5
REMARK    2  A    between atoms: _5  and  _6
REMARK    3  A    between atoms: _5  and  _8
REMARK    4  A    between atoms: _8  and  _9
REMARK    5  A    between atoms: _12  and  _14
REMARK    6  A    between atoms: _14  and  _15
REMARK    7  A    between atoms: _14  and  _17
REMARK    8  A    between atoms: _20  and  _22
REMARK    9  A    between atoms: _22  and  _23
REMARK   10  A    between atoms: _22  and  _25
REMARK   11  A    between atoms: _25  and  _26
REMARK   12  A    between atoms: _32  and  _34
REMARK   13  A    between atoms: _34  and  _35
REMARK   14  A    between atoms: _34  and  _37
REMARK   15  A    between atoms: _37  and  _38
REMARK   16  A    between atoms: _38  and  _62
REMARK   17  A    between atoms: _39  and  _41
REMARK   18  A    between atoms: _41  and  _42
REMARK   19  A    between atoms: _45  and  _47
REMARK   20  A    between atoms: _47  and  _48
REMARK   21  A    between atoms: _47  and  _50
REMARK   22  A    between atoms: _50  and  _51
REMARK   23  A    between atoms: _56  and  _58
REMARK   24  A    between atoms: _58  and  _59
REMARK   25  A    between atoms: _58  and  _61
REMARK   26  A    between atoms: _61  and  _62
REMARK   27  A    between atoms: _63  and  _65
REMARK   28  A    between atoms: _65  and  _66
REMARK   29  A    between atoms: _65  and  _68
REMARK   30  A    between atoms: _68  and  _69
REMARK   31  A    between atoms: _72  and  _74
REMARK   32  A    between atoms: _74  and  _75
REMARK   33  A    between atoms: _74  and  _77
REMARK   34  A    between atoms: _77  and  _78
REMARK   35  A    between atoms: _81  and  _83
REMARK   36  A    between atoms: _83  and  _84
REMARK   37  A    between atoms: _83  and  _86
REMARK   38  A    between atoms: _86  and  _87
REMARK   39  A    between atoms: _90  and  _92
REMARK   40  A    between atoms: _92  and  _93
REMARK   41  A    between atoms: _92  and  _95
REMARK   42  A    between atoms: _95  and  _96
REMARK   43  A    between atoms: _101  and  _103
REMARK   44  A    between atoms: _103  and  _104
REMARK   45  A    between atoms: _103  and  _106
REMARK   46  A    between atoms: _106  and  _107
REMARK   47  A    between atoms: _112  and  _113
REMARK   48  A    between atoms: _115  and  _117
REMARK   49  A    between atoms: _117  and  _118
REMARK   50  A    between atoms: _117  and  _120
REMARK   51  A    between atoms: _120  and  _121
REMARK   52  A    between atoms: _126  and  _127
REMARK   53  A    between atoms: _129  and  _131
REMARK   54  A    between atoms: _131  and  _132
REMARK   55  A    between atoms: _135  and  _137
REMARK   56  A    between atoms: _137  and  _138
REMARK   57  A    between atoms: _137  and  _140
REMARK   58  A    between atoms: _140  and  _141
REMARK   59  A    between atoms: _141  and  _142
REMARK   60  A    between atoms: _142  and  _143
REMARK   61  A    between atoms: _143  and  _144
REMARK   62  A    between atoms: _148  and  _150
REMARK   63  A    between atoms: _150  and  _151
REMARK   64  A    between atoms: _150  and  _153
REMARK   65  A    between atoms: _153  and  _154
REMARK   66  A    between atoms: _157  and  _159
REMARK   67  A    between atoms: _159  and  _160
REMARK   68  A    between atoms: _159  and  _162
REMARK   69  A    between atoms: _162  and  _163
REMARK   70  A    between atoms: _165  and  _167
REMARK   71  A    between atoms: _167  and  _168
REMARK   72  A    between atoms: _167  and  _170
REMARK   73  A    between atoms: _170  and  _171
REMARK   74  A    between atoms: _171  and  _281
REMARK   75  A    between atoms: _172  and  _174
REMARK   76  A    between atoms: _174  and  _175
REMARK   77  A    between atoms: _174  and  _177
REMARK   78  A    between atoms: _177  and  _178
REMARK   79  A    between atoms: _178  and  _179
REMARK   80  A    between atoms: _184  and  _186
REMARK   81  A    between atoms: _186  and  _187
REMARK   82  A    between atoms: _189  and  _191
REMARK   83  A    between atoms: _191  and  _192
REMARK   84  A    between atoms: _191  and  _194
REMARK   85  A    between atoms: _194  and  _195
REMARK   86  A    between atoms: _198  and  _200
REMARK   87  A    between atoms: _200  and  _201
REMARK   88  A    between atoms: _200  and  _203
REMARK   89  A    between atoms: _203  and  _204
REMARK   90  A    between atoms: _206  and  _208
REMARK   91  A    between atoms: _208  and  _209
REMARK   92  A    between atoms: _211  and  _213
REMARK   93  A    between atoms: _213  and  _214
REMARK   94  A    between atoms: _216  and  _218
REMARK   95  A    between atoms: _218  and  _219
REMARK   96  A    between atoms: _218  and  _221
REMARK   97  A    between atoms: _221  and  _222
REMARK   98  A    between atoms: _225  and  _227
REMARK   99  A    between atoms: _227  and  _228
REMARK  100  A    between atoms: _227  and  _230
REMARK  101  A    between atoms: _233  and  _235
REMARK  102  A    between atoms: _235  and  _236
REMARK  103  A    between atoms: _235  and  _238
REMARK  104  A    between atoms: _238  and  _239
REMARK  105  A    between atoms: _241  and  _243
REMARK  106  A    between atoms: _243  and  _244
REMARK  107  A    between atoms: _243  and  _246
REMARK  108  A    between atoms: _246  and  _247
REMARK  109  A    between atoms: _257  and  _259
REMARK  110  A    between atoms: _259  and  _260
REMARK  111  A    between atoms: _262  and  _264
REMARK  112  A    between atoms: _264  and  _265
REMARK  113  A    between atoms: _264  and  _267
REMARK  114  A    between atoms: _267  and  _268
REMARK  115  A    between atoms: _270  and  _272
REMARK  116  A    between atoms: _272  and  _273
REMARK  117  A    between atoms: _275  and  _277
REMARK  118  A    between atoms: _277  and  _278
REMARK  119  A    between atoms: _277  and  _280
REMARK  120  A    between atoms: _280  and  _281
REMARK  121  A    between atoms: _282  and  _284
REMARK  122  A    between atoms: _284  and  _285
REMARK  123  A    between atoms: _288  and  _290
REMARK  124  A    between atoms: _290  and  _291
REMARK  125  A    between atoms: _290  and  _293
REMARK  126  A    between atoms: _293  and  _294
REMARK  127  A    between atoms: _294  and  _295
REMARK  128  A    between atoms: _300  and  _302
REMARK  129  A    between atoms: _302  and  _303
REMARK  130  A    between atoms: _302  and  _305
REMARK  131  A    between atoms: _305  and  _306
REMARK  132  A    between atoms: _306  and  _307
REMARK  133  A    between atoms: _307  and  _308
REMARK  134  A    between atoms: _308  and  _309
REMARK  135  A    between atoms: _314  and  _315
REMARK  136  A    between atoms: _320  and  _322
REMARK  137  A    between atoms: _322  and  _323
REMARK  138  A    between atoms: _325  and  _327
REMARK  139  A    between atoms: _327  and  _328
REMARK  140  A    between atoms: _327  and  _330
REMARK  141  A    between atoms: _333  and  _335
REMARK  142  A    between atoms: _335  and  _336
REMARK  143  A    between atoms: _335  and  _338
REMARK  144  A    between atoms: _338  and  _339
REMARK  145  A    between atoms: _344  and  _345
REMARK                            x       y       z     vdW  Elec       q    Type
REMARK                         _______ _______ _______ _____ _____    ______ ____
ROOT
ATOM      1  CA  LEU A   1      34.232   4.262  27.726  0.00  0.00    +0.133 C 
ENDROOT
BRANCH   1   2
ATOM      2  N   LEU A   1      32.907   3.619  27.887  0.00  0.00    -0.239 NA
ATOM      3  H   LEU A   1      32.365   3.865  28.740  0.00  0.00    +0.142 HD
ENDBRANCH   1   2
BRANCH   1   4
ATOM      4  C   LEU A   1      34.176   5.200  26.554  0.00  0.00    +0.224 C 
ATOM      5  O   LEU A   1      35.173   5.525  25.934  0.00  0.00    -0.287 OA
ENDBRANCH   1   4
BRANCH   1   6
ATOM      6  CB  LEU A   1      35.328   3.175  27.528  0.00  0.00    +0.025 C 
BRANCH   6   7
ATOM      7  CG  LEU A   1      35.397   2.314  28.811  0.00  0.00    +0.002 C 
ATOM      8  CD2 LEU A   1      35.843   3.162  30.043  0.00  0.00    +0.000 C 
ATOM      9  CD1 LEU A   1      36.413   1.197  28.586  0.00  0.00    +0.000 C 
ENDBRANCH   6   7
ENDBRANCH   1   6
TORSDOF 4
REMARK  Name = ../refined-set-2016/1gi4/1gi4_pocket.pdb
REMARK  145 active torsions:
REMARK  status: ('A' for Active; 'I' for Inactive)
REMARK    1  A    between atoms: _1  and  _5
REMARK    2  A    between atoms: _5  and  _6
REMARK    3  A    between atoms: _5  and  _8
REMARK    4  A    between atoms: _8  and  _9
REMARK    5  A    between atoms: _12  and  _14
REMARK    6  A    between atoms: _14  and  _15
REMARK    7  A    between atoms: _14  and  _17
REMARK    8  A    between atoms: _20  and  _22
REMARK    9  A    between atoms: _22  and  _23
REMARK   10  A    between atoms: _22  and  _25
REMARK   11  A    between atoms: _25  and  _26
REMARK   12  A    between atoms: _32  and  _34
REMARK   13  A    between atoms: _34  and  _35
REMARK   14  A    between atoms: _34  and  _37
REMARK   15  A    between atoms: _37  and  _38
REMARK   16  A    between atoms: _38  and  _62
REMARK   17  A    between atoms: _39  and  _41
REMARK   18  A    between atoms: _41  and  _42
REMARK   19  A    between atoms: _45  and  _47
REMARK   20  A    between atoms: _47  and  _48
REMARK   21  A    between atoms: _47  and  _50
REMARK   22  A    between atoms: _50  and  _51
REMARK   23  A    between atoms: _56  and  _58
REMARK   24  A    between atoms: _58  and  _59
REMARK   25  A    between atoms: _58  and  _61
REMARK   26  A    between atoms: _61  and  _62
REMARK   27  A    between atoms: _63  and  _65
REMARK   28  A    between atoms: _65  and  _66
REMARK   29  A    between atoms: _65  and  _68
REMARK   30  A    between atoms: _68  and  _69
REMARK   31  A    between atoms: _72  and  _74
REMARK   32  A    between atoms: _74  and  _75
REMARK   33  A    between atoms: _74  and  _77
REMARK   34  A    between atoms: _77  and  _78
REMARK   35  A    between atoms: _81  and  _83
REMARK   36  A    between atoms: _83  and  _84
REMARK   37  A    between atoms: _83  and  _86
REMARK   38  A    between atoms: _86  and  _87
REMARK   39  A    between atoms: _90  and  _92
REMARK   40  A    between atoms: _92  and  _93
REMARK   41  A    between atoms: _92  and  _95
REMARK   42  A    between atoms: _95  and  _96
REMARK   43  A    between atoms: _101  and  _103
REMARK   44  A    between atoms: _103  and  _104
REMARK   45  A    between atoms: _103  and  _106
REMARK   46  A    between atoms: _106  and  _107
REMARK   47  A    between atoms: _112  and  _113
REMARK   48  A    between atoms: _115  and  _117
REMARK   49  A    between atoms: _117  and  _118
REMARK   50  A    between atoms: _117  and  _120
REMARK   51  A    between atoms: _120  and  _121
REMARK   52  A    between atoms: _126  and  _127
REMARK   53  A    between atoms: _129  and  _131
REMARK   54  A    between atoms: _131  and  _132
REMARK   55  A    between atoms: _135  and  _137
REMARK   56  A    between atoms: _137  and  _138
REMARK   57  A    between atoms: _137  and  _140
REMARK   58  A    between atoms: _140  and  _141
REMARK   59  A    between atoms: _141  and  _142
REMARK   60  A    between atoms: _142  and  _143
REMARK   61  A    between atoms: _143  and  _144
REMARK   62  A    between atoms: _148  and  _150
REMARK   63  A    between atoms: _150  and  _151
REMARK   64  A    between atoms: _150  and  _153
REMARK   65  A    between atoms: _153  and  _154
REMARK   66  A    between atoms: _157  and  _159
REMARK   67  A    between atoms: _159  and  _160
REMARK   68  A    between atoms: _159  and  _162
REMARK   69  A    between atoms: _162  and  _163
REMARK   70  A    between atoms: _165  and  _167
REMARK   71  A    between atoms: _167  and  _168
REMARK   72  A    between atoms: _167  and  _170
REMARK   73  A    between atoms: _170  and  _171
REMARK   74  A    between atoms: _171  and  _281
REMARK   75  A    between atoms: _172  and  _174
REMARK   76  A    between atoms: _174  and  _175
REMARK   77  A    between atoms: _174  and  _177
REMARK   78  A    between atoms: _177  and  _178
REMARK   79  A    between atoms: _178  and  _179
REMARK   80  A    between atoms: _184  and  _186
REMARK   81  A    between atoms: _186  and  _187
REMARK   82  A    between atoms: _189  and  _191
REMARK   83  A    between atoms: _191  and  _192
REMARK   84  A    between atoms: _191  and  _194
REMARK   85  A    between atoms: _194  and  _195
REMARK   86  A    between atoms: _198  and  _200
REMARK   87  A    between atoms: _200  and  _201
REMARK   88  A    between atoms: _200  and  _203
REMARK   89  A    between atoms: _203  and  _204
REMARK   90  A    between atoms: _206  and  _208
REMARK   91  A    between atoms: _208  and  _209
REMARK   92  A    between atoms: _211  and  _213
REMARK   93  A    between atoms: _213  and  _214
REMARK   94  A    between atoms: _216  and  _218
REMARK   95  A    between atoms: _218  and  _219
REMARK   96  A    between atoms: _218  and  _221
REMARK   97  A    between atoms: _221  and  _222
REMARK   98  A    between atoms: _225  and  _227
REMARK   99  A    between atoms: _227  and  _228
REMARK  100  A    between atoms: _227  and  _230
REMARK  101  A    between atoms: _233  and  _235
REMARK  102  A    between atoms: _235  and  _236
REMARK  103  A    between atoms: _235  and  _238
REMARK  104  A    between atoms: _238  and  _239
REMARK  105  A    between atoms: _241  and  _243
REMARK  106  A    between atoms: _243  and  _244
REMARK  107  A    between atoms: _243  and  _246
REMARK  108  A    between atoms: _246  and  _247
REMARK  109  A    between atoms: _257  and  _259
REMARK  110  A    between atoms: _259  and  _260
REMARK  111  A    between atoms: _262  and  _264
REMARK  112  A    between atoms: _264  and  _265
REMARK  113  A    between atoms: _264  and  _267
REMARK  114  A    between atoms: _267  and  _268
REMARK  115  A    between atoms: _270  and  _272
REMARK  116  A    between atoms: _272  and  _273
REMARK  117  A    between atoms: _275  and  _277
REMARK  118  A    between atoms: _277  and  _278
REMARK  119  A    between atoms: _277  and  _280
REMARK  120  A    between atoms: _280  and  _281
REMARK  121  A    between atoms: _282  and  _284
REMARK  122  A    between atoms: _284  and  _285
REMARK  123  A    between atoms: _288  and  _290
REMARK  124  A    between atoms: _290  and  _291
REMARK  125  A    between atoms: _290  and  _293
REMARK  126  A    between atoms: _293  and  _294
REMARK  127  A    between atoms: _294  and  _295
REMARK  128  A    between atoms: _300  and  _302
REMARK  129  A    between atoms: _302  and  _303
REMARK  130  A    between atoms: _302  and  _305
REMARK  131  A    between atoms: _305  and  _306
REMARK  132  A    between atoms: _306  and  _307
REMARK  133  A    between atoms: _307  and  _308
REMARK  134  A    between atoms: _308  and  _309
REMARK  135  A    between atoms: _314  and  _315
REMARK  136  A    between atoms: _320  and  _322
REMARK  137  A    between atoms: _322  and  _323
REMARK  138  A    between atoms: _325  and  _327
REMARK  139  A    between atoms: _327  and  _328
REMARK  140  A    between atoms: _327  and  _330
REMARK  141  A    between atoms: _333  and  _335
REMARK  142  A    between atoms: _335  and  _336
REMARK  143  A    between atoms: _335  and  _338
REMARK  144  A    between atoms: _338  and  _339
REMARK  145  A    between atoms: _344  and  _345
REMARK                            x       y       z     vdW  Elec       q    Type
REMARK                         _______ _______ _______ _____ _____    ______ ____
ROOT
ATOM      1  CA  ASP A   1      37.621   8.368  27.085  0.00  0.00    +0.144 C 
ENDROOT
BRANCH   1   2
ATOM      2  N   ASP A   1      36.560   8.710  26.091  0.00  0.00    -0.239 NA
ATOM      3  H   ASP A   1      36.448   8.148  25.223  0.00  0.00    +0.142 HD
ENDBRANCH   1   2
BRANCH   1   4
ATOM      4  C   ASP A   1      38.873   9.218  26.840  0.00  0.00    +0.225 C 
ATOM      5  O   ASP A   1      39.863   8.753  26.310  0.00  0.00    -0.287 OA
ENDBRANCH   1   4
BRANCH   1   6
ATOM      6  CB  ASP A   1      37.993   6.907  26.962  0.00  0.00    +0.139 C 
BRANCH   6   7
ATOM      7  CG  ASP A   1      38.945   6.463  28.109  0.00  0.00    +0.367 C 
ATOM      8  OD2 ASP A   1      39.077   7.206  29.056  0.00  0.00    -0.246 OA
ATOM      9  OD1 ASP A   1      39.488   5.386  27.981  0.00  0.00    -0.246 OA
ENDBRANCH   6   7
ENDBRANCH   1   6
TORSDOF 4
REMARK  Name = ../refined-set-2016/1gi4/1gi4_pocket.pdb
REMARK  145 active torsions:
REMARK  status: ('A' for Active; 'I' for Inactive)
REMARK    1  A    between atoms: _1  and  _5
REMARK    2  A    between atoms: _5  and  _6
REMARK    3  A    between atoms: _5  and  _8
REMARK    4  A    between atoms: _8  and  _9
REMARK    5  A    between atoms: _12  and  _14
REMARK    6  A    between atoms: _14  and  _15
REMARK    7  A    between atoms: _14  and  _17
REMARK    8  A    between atoms: _20  and  _22
REMARK    9  A    between atoms: _22  and  _23
REMARK   10  A    between atoms: _22  and  _25
REMARK   11  A    between atoms: _25  and  _26
REMARK   12  A    between atoms: _32  and  _34
REMARK   13  A    between atoms: _34  and  _35
REMARK   14  A    between atoms: _34  and  _37
REMARK   15  A    between atoms: _37  and  _38
REMARK   16  A    between atoms: _38  and  _62
REMARK   17  A    between atoms: _39  and  _41
REMARK   18  A    between atoms: _41  and  _42
REMARK   19  A    between atoms: _45  and  _47
REMARK   20  A    between atoms: _47  and  _48
REMARK   21  A    between atoms: _47  and  _50
REMARK   22  A    between atoms: _50  and  _51
REMARK   23  A    between atoms: _56  and  _58
REMARK   24  A    between atoms: _58  and  _59
REMARK   25  A    between atoms: _58  and  _61
REMARK   26  A    between atoms: _61  and  _62
REMARK   27  A    between atoms: _63  and  _65
REMARK   28  A    between atoms: _65  and  _66
REMARK   29  A    between atoms: _65  and  _68
REMARK   30  A    between atoms: _68  and  _69
REMARK   31  A    between atoms: _72  and  _74
REMARK   32  A    between atoms: _74  and  _75
REMARK   33  A    between atoms: _74  and  _77
REMARK   34  A    between atoms: _77  and  _78
REMARK   35  A    between atoms: _81  and  _83
REMARK   36  A    between atoms: _83  and  _84
REMARK   37  A    between atoms: _83  and  _86
REMARK   38  A    between atoms: _86  and  _87
REMARK   39  A    between atoms: _90  and  _92
REMARK   40  A    between atoms: _92  and  _93
REMARK   41  A    between atoms: _92  and  _95
REMARK   42  A    between atoms: _95  and  _96
REMARK   43  A    between atoms: _101  and  _103
REMARK   44  A    between atoms: _103  and  _104
REMARK   45  A    between atoms: _103  and  _106
REMARK   46  A    between atoms: _106  and  _107
REMARK   47  A    between atoms: _112  and  _113
REMARK   48  A    between atoms: _115  and  _117
REMARK   49  A    between atoms: _117  and  _118
REMARK   50  A    between atoms: _117  and  _120
REMARK   51  A    between atoms: _120  and  _121
REMARK   52  A    between atoms: _126  and  _127
REMARK   53  A    between atoms: _129  and  _131
REMARK   54  A    between atoms: _131  and  _132
REMARK   55  A    between atoms: _135  and  _137
REMARK   56  A    between atoms: _137  and  _138
REMARK   57  A    between atoms: _137  and  _140
REMARK   58  A    between atoms: _140  and  _141
REMARK   59  A    between atoms: _141  and  _142
REMARK   60  A    between atoms: _142  and  _143
REMARK   61  A    between atoms: _143  and  _144
REMARK   62  A    between atoms: _148  and  _150
REMARK   63  A    between atoms: _150  and  _151
REMARK   64  A    between atoms: _150  and  _153
REMARK   65  A    between atoms: _153  and  _154
REMARK   66  A    between atoms: _157  and  _159
REMARK   67  A    between atoms: _159  and  _160
REMARK   68  A    between atoms: _159  and  _162
REMARK   69  A    between atoms: _162  and  _163
REMARK   70  A    between atoms: _165  and  _167
REMARK   71  A    between atoms: _167  and  _168
REMARK   72  A    between atoms: _167  and  _170
REMARK   73  A    between atoms: _170  and  _171
REMARK   74  A    between atoms: _171  and  _281
REMARK   75  A    between atoms: _172  and  _174
REMARK   76  A    between atoms: _174  and  _175
REMARK   77  A    between atoms: _174  and  _177
REMARK   78  A    between atoms: _177  and  _178
REMARK   79  A    between atoms: _178  and  _179
REMARK   80  A    between atoms: _184  and  _186
REMARK   81  A    between atoms: _186  and  _187
REMARK   82  A    between atoms: _189  and  _191
REMARK   83  A    between atoms: _191  and  _192
REMARK   84  A    between atoms: _191  and  _194
REMARK   85  A    between atoms: _194  and  _195
REMARK   86  A    between atoms: _198  and  _200
REMARK   87  A    between atoms: _200  and  _201
REMARK   88  A    between atoms: _200  and  _203
REMARK   89  A    between atoms: _203  and  _204
REMARK   90  A    between atoms: _206  and  _208
REMARK   91  A    between atoms: _208  and  _209
REMARK   92  A    between atoms: _211  and  _213
REMARK   93  A    between atoms: _213  and  _214
REMARK   94  A    between atoms: _216  and  _218
REMARK   95  A    between atoms: _218  and  _219
REMARK   96  A    between atoms: _218  and  _221
REMARK   97  A    between atoms: _221  and  _222
REMARK   98  A    between atoms: _225  and  _227
REMARK   99  A    between atoms: _227  and  _228
REMARK  100  A    between atoms: _227  and  _230
REMARK  101  A    between atoms: _233  and  _235
REMARK  102  A    between atoms: _235  and  _236
REMARK  103  A    between atoms: _235  and  _238
REMARK  104  A    between atoms: _238  and  _239
REMARK  105  A    between atoms: _241  and  _243
REMARK  106  A    between atoms: _243  and  _244
REMARK  107  A    between atoms: _243  and  _246
REMARK  108  A    between atoms: _246  and  _247
REMARK  109  A    between atoms: _257  and  _259
REMARK  110  A    between atoms: _259  and  _260
REMARK  111  A    between atoms: _262  and  _264
REMARK  112  A    between atoms: _264  and  _265
REMARK  113  A    between atoms: _264  and  _267
REMARK  114  A    between atoms: _267  and  _268
REMARK  115  A    between atoms: _270  and  _272
REMARK  116  A    between atoms: _272  and  _273
REMARK  117  A    between atoms: _275  and  _277
REMARK  118  A    between atoms: _277  and  _278
REMARK  119  A    between atoms: _277  and  _280
REMARK  120  A    between atoms: _280  and  _281
REMARK  121  A    between atoms: _282  and  _284
REMARK  122  A    between atoms: _284  and  _285
REMARK  123  A    between atoms: _288  and  _290
REMARK  124  A    between atoms: _290  and  _291
REMARK  125  A    between atoms: _290  and  _293
REMARK  126  A    between atoms: _293  and  _294
REMARK  127  A    between atoms: _294  and  _295
REMARK  128  A    between atoms: _300  and  _302
REMARK  129  A    between atoms: _302  and  _303
REMARK  130  A    between atoms: _302  and  _305
REMARK  131  A    between atoms: _305  and  _306
REMARK  132  A    between atoms: _306  and  _307
REMARK  133  A    between atoms: _307  and  _308
REMARK  134  A    between atoms: _308  and  _309
REMARK  135  A    between atoms: _314  and  _315
REMARK  136  A    between atoms: _320  and  _322
REMARK  137  A    between atoms: _322  and  _323
REMARK  138  A    between atoms: _325  and  _327
REMARK  139  A    between atoms: _327  and  _328
REMARK  140  A    between atoms: _327  and  _330
REMARK  141  A    between atoms: _333  and  _335
REMARK  142  A    between atoms: _335  and  _336
REMARK  143  A    between atoms: _335  and  _338
REMARK  144  A    between atoms: _338  and  _339
REMARK  145  A    between atoms: _344  and  _345
REMARK                            x       y       z     vdW  Elec       q    Type
REMARK                         _______ _______ _______ _____ _____    ______ ____
ROOT
ATOM      1  CA  ILE A   1      51.833   2.873  20.265  0.00  0.00    +0.133 C 
ENDROOT
BRANCH   1   2
ATOM      2  N   ILE A   1      52.512   2.870  18.955  0.00  0.00    -0.239 NA
ATOM      3  H   ILE A   1      52.938   1.984  18.616  0.00  0.00    +0.142 HD
ENDBRANCH   1   2
BRANCH   1   4
ATOM      4  C   ILE A   1      52.997   2.561  21.220  0.00  0.00    +0.224 C 
ATOM      5  O   ILE A   1      53.824   1.719  20.910  0.00  0.00    -0.287 OA
ENDBRANCH   1   4
BRANCH   1   6
ATOM      6  CB  ILE A   1      50.791   1.757  20.257  0.00  0.00    +0.023 C 
ATOM      7  CG2 ILE A   1      49.958   1.825  21.567  0.00  0.00    +0.002 C 
BRANCH   6   8
ATOM      8  CG1 ILE A   1      49.874   1.966  19.015  0.00  0.00    +0.002 C 
ATOM      9  CD1 ILE A   1      48.880   0.809  18.871  0.00  0.00    +0.000 C 
ENDBRANCH   6   8
ENDBRANCH   1   6
TORSDOF 4
REMARK  Name = ../refined-set-2016/1gi4/1gi4_pocket.pdb
REMARK  145 active torsions:
REMARK  status: ('A' for Active; 'I' for Inactive)
REMARK    1  A    between atoms: _1  and  _5
REMARK    2  A    between atoms: _5  and  _6
REMARK    3  A    between atoms: _5  and  _8
REMARK    4  A    between atoms: _8  and  _9
REMARK    5  A    between atoms: _12  and  _14
REMARK    6  A    between atoms: _14  and  _15
REMARK    7  A    between atoms: _14  and  _17
REMARK    8  A    between atoms: _20  and  _22
REMARK    9  A    between atoms: _22  and  _23
REMARK   10  A    between atoms: _22  and  _25
REMARK   11  A    between atoms: _25  and  _26
REMARK   12  A    between atoms: _32  and  _34
REMARK   13  A    between atoms: _34  and  _35
REMARK   14  A    between atoms: _34  and  _37
REMARK   15  A    between atoms: _37  and  _38
REMARK   16  A    between atoms: _38  and  _62
REMARK   17  A    between atoms: _39  and  _41
REMARK   18  A    between atoms: _41  and  _42
REMARK   19  A    between atoms: _45  and  _47
REMARK   20  A    between atoms: _47  and  _48
REMARK   21  A    between atoms: _47  and  _50
REMARK   22  A    between atoms: _50  and  _51
REMARK   23  A    between atoms: _56  and  _58
REMARK   24  A    between atoms: _58  and  _59
REMARK   25  A    between atoms: _58  and  _61
REMARK   26  A    between atoms: _61  and  _62
REMARK   27  A    between atoms: _63  and  _65
REMARK   28  A    between atoms: _65  and  _66
REMARK   29  A    between atoms: _65  and  _68
REMARK   30  A    between atoms: _68  and  _69
REMARK   31  A    between atoms: _72  and  _74
REMARK   32  A    between atoms: _74  and  _75
REMARK   33  A    between atoms: _74  and  _77
REMARK   34  A    between atoms: _77  and  _78
REMARK   35  A    between atoms: _81  and  _83
REMARK   36  A    between atoms: _83  and  _84
REMARK   37  A    between atoms: _83  and  _86
REMARK   38  A    between atoms: _86  and  _87
REMARK   39  A    between atoms: _90  and  _92
REMARK   40  A    between atoms: _92  and  _93
REMARK   41  A    between atoms: _92  and  _95
REMARK   42  A    between atoms: _95  and  _96
REMARK   43  A    between atoms: _101  and  _103
REMARK   44  A    between atoms: _103  and  _104
REMARK   45  A    between atoms: _103  and  _106
REMARK   46  A    between atoms: _106  and  _107
REMARK   47  A    between atoms: _112  and  _113
REMARK   48  A    between atoms: _115  and  _117
REMARK   49  A    between atoms: _117  and  _118
REMARK   50  A    between atoms: _117  and  _120
REMARK   51  A    between atoms: _120  and  _121
REMARK   52  A    between atoms: _126  and  _127
REMARK   53  A    between atoms: _129  and  _131
REMARK   54  A    between atoms: _131  and  _132
REMARK   55  A    between atoms: _135  and  _137
REMARK   56  A    between atoms: _137  and  _138
REMARK   57  A    between atoms: _137  and  _140
REMARK   58  A    between atoms: _140  and  _141
REMARK   59  A    between atoms: _141  and  _142
REMARK   60  A    between atoms: _142  and  _143
REMARK   61  A    between atoms: _143  and  _144
REMARK   62  A    between atoms: _148  and  _150
REMARK   63  A    between atoms: _150  and  _151
REMARK   64  A    between atoms: _150  and  _153
REMARK   65  A    between atoms: _153  and  _154
REMARK   66  A    between atoms: _157  and  _159
REMARK   67  A    between atoms: _159  and  _160
REMARK   68  A    between atoms: _159  and  _162
REMARK   69  A    between atoms: _162  and  _163
REMARK   70  A    between atoms: _165  and  _167
REMARK   71  A    between atoms: _167  and  _168
REMARK   72  A    between atoms: _167  and  _170
REMARK   73  A    between atoms: _170  and  _171
REMARK   74  A    between atoms: _171  and  _281
REMARK   75  A    between atoms: _172  and  _174
REMARK   76  A    between atoms: _174  and  _175
REMARK   77  A    between atoms: _174  and  _177
REMARK   78  A    between atoms: _177  and  _178
REMARK   79  A    between atoms: _178  and  _179
REMARK   80  A    between atoms: _184  and  _186
REMARK   81  A    between atoms: _186  and  _187
REMARK   82  A    between atoms: _189  and  _191
REMARK   83  A    between atoms: _191  and  _192
REMARK   84  A    between atoms: _191  and  _194
REMARK   85  A    between atoms: _194  and  _195
REMARK   86  A    between atoms: _198  and  _200
REMARK   87  A    between atoms: _200  and  _201
REMARK   88  A    between atoms: _200  and  _203
REMARK   89  A    between atoms: _203  and  _204
REMARK   90  A    between atoms: _206  and  _208
REMARK   91  A    between atoms: _208  and  _209
REMARK   92  A    between atoms: _211  and  _213
REMARK   93  A    between atoms: _213  and  _214
REMARK   94  A    between atoms: _216  and  _218
REMARK   95  A    between atoms: _218  and  _219
REMARK   96  A    between atoms: _218  and  _221
REMARK   97  A    between atoms: _221  and  _222
REMARK   98  A    between atoms: _225  and  _227
REMARK   99  A    between atoms: _227  and  _228
REMARK  100  A    between atoms: _227  and  _230
REMARK  101  A    between atoms: _233  and  _235
REMARK  102  A    between atoms: _235  and  _236
REMARK  103  A    between atoms: _235  and  _238
REMARK  104  A    between atoms: _238  and  _239
REMARK  105  A    between atoms: _241  and  _243
REMARK  106  A    between atoms: _243  and  _244
REMARK  107  A    between atoms: _243  and  _246
REMARK  108  A    between atoms: _246  and  _247
REMARK  109  A    between atoms: _257  and  _259
REMARK  110  A    between atoms: _259  and  _260
REMARK  111  A    between atoms: _262  and  _264
REMARK  112  A    between atoms: _264  and  _265
REMARK  113  A    between atoms: _264  and  _267
REMARK  114  A    between atoms: _267  and  _268
REMARK  115  A    between atoms: _270  and  _272
REMARK  116  A    between atoms: _272  and  _273
REMARK  117  A    between atoms: _275  and  _277
REMARK  118  A    between atoms: _277  and  _278
REMARK  119  A    between atoms: _277  and  _280
REMARK  120  A    between atoms: _280  and  _281
REMARK  121  A    between atoms: _282  and  _284
REMARK  122  A    between atoms: _284  and  _285
REMARK  123  A    between atoms: _288  and  _290
REMARK  124  A    between atoms: _290  and  _291
REMARK  125  A    between atoms: _290  and  _293
REMARK  126  A    between atoms: _293  and  _294
REMARK  127  A    between atoms: _294  and  _295
REMARK  128  A    between atoms: _300  and  _302
REMARK  129  A    between atoms: _302  and  _303
REMARK  130  A    between atoms: _302  and  _305
REMARK  131  A    between atoms: _305  and  _306
REMARK  132  A    between atoms: _306  and  _307
REMARK  133  A    between atoms: _307  and  _308
REMARK  134  A    between atoms: _308  and  _309
REMARK  135  A    between atoms: _314  and  _315
REMARK  136  A    between atoms: _320  and  _322
REMARK  137  A    between atoms: _322  and  _323
REMARK  138  A    between atoms: _325  and  _327
REMARK  139  A    between atoms: _327  and  _328
REMARK  140  A    between atoms: _327  and  _330
REMARK  141  A    between atoms: _333  and  _335
REMARK  142  A    between atoms: _335  and  _336
REMARK  143  A    between atoms: _335  and  _338
REMARK  144  A    between atoms: _338  and  _339
REMARK  145  A    between atoms: _344  and  _345
REMARK                            x       y       z     vdW  Elec       q    Type
REMARK                         _______ _______ _______ _____ _____    ______ ____
ROOT
ATOM      1  CB  ASN A   1      50.399  -5.696  31.462  0.00  0.00    +0.110 C 
ENDROOT
BRANCH   1   2
ATOM      2  CG  ASN A   1      50.626  -7.161  31.815  0.00  0.00    +0.221 C 
ATOM      3  ND2 ASN A   1      49.591  -7.799  32.220  0.00  0.00    -0.329 N 
ATOM      4 HD21 ASN A   1      49.667  -8.804  32.477  0.00  0.00    +0.145 HD
ATOM      5 HD22 ASN A   1      48.675  -7.312  32.291  0.00  0.00    +0.145 HD
ATOM      6  OD1 ASN A   1      51.696  -7.739  31.734  0.00  0.00    -0.275 OA
ENDBRANCH   1   2
BRANCH   1   7
ATOM      7  CA  ASN A   1      51.699  -5.008  31.012  0.00  0.00    +0.142 C 
BRANCH   7   8
ATOM      8  N   ASN A   1      51.425  -3.549  30.977  0.00  0.00    -0.239 NA
ATOM      9  H   ASN A   1      50.509  -3.178  31.299  0.00  0.00    +0.142 HD
ENDBRANCH   7   8
BRANCH   7  10
ATOM     10  C   ASN A   1      52.192  -5.558  29.670  0.00  0.00    +0.225 C 
ATOM     11  O   ASN A   1      51.752  -5.104  28.613  0.00  0.00    -0.287 OA
ENDBRANCH   7  10
ENDBRANCH   1   7
TORSDOF 4
REMARK  Name = ../refined-set-2016/1gi4/1gi4_pocket.pdb
REMARK  145 active torsions:
REMARK  status: ('A' for Active; 'I' for Inactive)
REMARK    1  A    between atoms: _1  and  _5
REMARK    2  A    between atoms: _5  and  _6
REMARK    3  A    between atoms: _5  and  _8
REMARK    4  A    between atoms: _8  and  _9
REMARK    5  A    between atoms: _12  and  _14
REMARK    6  A    between atoms: _14  and  _15
REMARK    7  A    between atoms: _14  and  _17
REMARK    8  A    between atoms: _20  and  _22
REMARK    9  A    between atoms: _22  and  _23
REMARK   10  A    between atoms: _22  and  _25
REMARK   11  A    between atoms: _25  and  _26
REMARK   12  A    between atoms: _32  and  _34
REMARK   13  A    between atoms: _34  and  _35
REMARK   14  A    between atoms: _34  and  _37
REMARK   15  A    between atoms: _37  and  _38
REMARK   16  A    between atoms: _38  and  _62
REMARK   17  A    between atoms: _39  and  _41
REMARK   18  A    between atoms: _41  and  _42
REMARK   19  A    between atoms: _45  and  _47
REMARK   20  A    between atoms: _47  and  _48
REMARK   21  A    between atoms: _47  and  _50
REMARK   22  A    between atoms: _50  and  _51
REMARK   23  A    between atoms: _56  and  _58
REMARK   24  A    between atoms: _58  and  _59
REMARK   25  A    between atoms: _58  and  _61
REMARK   26  A    between atoms: _61  and  _62
REMARK   27  A    between atoms: _63  and  _65
REMARK   28  A    between atoms: _65  and  _66
REMARK   29  A    between atoms: _65  and  _68
REMARK   30  A    between atoms: _68  and  _69
REMARK   31  A    between atoms: _72  and  _74
REMARK   32  A    between atoms: _74  and  _75
REMARK   33  A    between atoms: _74  and  _77
REMARK   34  A    between atoms: _77  and  _78
REMARK   35  A    between atoms: _81  and  _83
REMARK   36  A    between atoms: _83  and  _84
REMARK   37  A    between atoms: _83  and  _86
REMARK   38  A    between atoms: _86  and  _87
REMARK   39  A    between atoms: _90  and  _92
REMARK   40  A    between atoms: _92  and  _93
REMARK   41  A    between atoms: _92  and  _95
REMARK   42  A    between atoms: _95  and  _96
REMARK   43  A    between atoms: _101  and  _103
REMARK   44  A    between atoms: _103  and  _104
REMARK   45  A    between atoms: _103  and  _106
REMARK   46  A    between atoms: _106  and  _107
REMARK   47  A    between atoms: _112  and  _113
REMARK   48  A    between atoms: _115  and  _117
REMARK   49  A    between atoms: _117  and  _118
REMARK   50  A    between atoms: _117  and  _120
REMARK   51  A    between atoms: _120  and  _121
REMARK   52  A    between atoms: _126  and  _127
REMARK   53  A    between atoms: _129  and  _131
REMARK   54  A    between atoms: _131  and  _132
REMARK   55  A    between atoms: _135  and  _137
REMARK   56  A    between atoms: _137  and  _138
REMARK   57  A    between atoms: _137  and  _140
REMARK   58  A    between atoms: _140  and  _141
REMARK   59  A    between atoms: _141  and  _142
REMARK   60  A    between atoms: _142  and  _143
REMARK   61  A    between atoms: _143  and  _144
REMARK   62  A    between atoms: _148  and  _150
REMARK   63  A    between atoms: _150  and  _151
REMARK   64  A    between atoms: _150  and  _153
REMARK   65  A    between atoms: _153  and  _154
REMARK   66  A    between atoms: _157  and  _159
REMARK   67  A    between atoms: _159  and  _160
REMARK   68  A    between atoms: _159  and  _162
REMARK   69  A    between atoms: _162  and  _163
REMARK   70  A    between atoms: _165  and  _167
REMARK   71  A    between atoms: _167  and  _168
REMARK   72  A    between atoms: _167  and  _170
REMARK   73  A    between atoms: _170  and  _171
REMARK   74  A    between atoms: _171  and  _281
REMARK   75  A    between atoms: _172  and  _174
REMARK   76  A    between atoms: _174  and  _175
REMARK   77  A    between atoms: _174  and  _177
REMARK   78  A    between atoms: _177  and  _178
REMARK   79  A    between atoms: _178  and  _179
REMARK   80  A    between atoms: _184  and  _186
REMARK   81  A    between atoms: _186  and  _187
REMARK   82  A    between atoms: _189  and  _191
REMARK   83  A    between atoms: _191  and  _192
REMARK   84  A    between atoms: _191  and  _194
REMARK   85  A    between atoms: _194  and  _195
REMARK   86  A    between atoms: _198  and  _200
REMARK   87  A    between atoms: _200  and  _201
REMARK   88  A    between atoms: _200  and  _203
REMARK   89  A    between atoms: _203  and  _204
REMARK   90  A    between atoms: _206  and  _208
REMARK   91  A    between atoms: _208  and  _209
REMARK   92  A    between atoms: _211  and  _213
REMARK   93  A    between atoms: _213  and  _214
REMARK   94  A    between atoms: _216  and  _218
REMARK   95  A    between atoms: _218  and  _219
REMARK   96  A    between atoms: _218  and  _221
REMARK   97  A    between atoms: _221  and  _222
REMARK   98  A    between atoms: _225  and  _227
REMARK   99  A    between atoms: _227  and  _228
REMARK  100  A    between atoms: _227  and  _230
REMARK  101  A    between atoms: _233  and  _235
REMARK  102  A    between atoms: _235  and  _236
REMARK  103  A    between atoms: _235  and  _238
REMARK  104  A    between atoms: _238  and  _239
REMARK  105  A    between atoms: _241  and  _243
REMARK  106  A    between atoms: _243  and  _244
REMARK  107  A    between atoms: _243  and  _246
REMARK  108  A    between atoms: _246  and  _247
REMARK  109  A    between atoms: _257  and  _259
REMARK  110  A    between atoms: _259  and  _260
REMARK  111  A    between atoms: _262  and  _264
REMARK  112  A    between atoms: _264  and  _265
REMARK  113  A    between atoms: _264  and  _267
REMARK  114  A    between atoms: _267  and  _268
REMARK  115  A    between atoms: _270  and  _272
REMARK  116  A    between atoms: _272  and  _273
REMARK  117  A    between atoms: _275  and  _277
REMARK  118  A    between atoms: _277  and  _278
REMARK  119  A    between atoms: _277  and  _280
REMARK  120  A    between atoms: _280  and  _281
REMARK  121  A    between atoms: _282  and  _284
REMARK  122  A    between atoms: _284  and  _285
REMARK  123  A    between atoms: _288  and  _290
REMARK  124  A    between atoms: _290  and  _291
REMARK  125  A    between atoms: _290  and  _293
REMARK  126  A    between atoms: _293  and  _294
REMARK  127  A    between atoms: _294  and  _295
REMARK  128  A    between atoms: _300  and  _302
REMARK  129  A    between atoms: _302  and  _303
REMARK  130  A    between atoms: _302  and  _305
REMARK  131  A    between atoms: _305  and  _306
REMARK  132  A    between atoms: _306  and  _307
REMARK  133  A    between atoms: _307  and  _308
REMARK  134  A    between atoms: _308  and  _309
REMARK  135  A    between atoms: _314  and  _315
REMARK  136  A    between atoms: _320  and  _322
REMARK  137  A    between atoms: _322  and  _323
REMARK  138  A    between atoms: _325  and  _327
REMARK  139  A    between atoms: _327  and  _328
REMARK  140  A    between atoms: _327  and  _330
REMARK  141  A    between atoms: _333  and  _335
REMARK  142  A    between atoms: _335  and  _336
REMARK  143  A    between atoms: _335  and  _338
REMARK  144  A    between atoms: _338  and  _339
REMARK  145  A    between atoms: _344  and  _345
REMARK                            x       y       z     vdW  Elec       q    Type
REMARK                         _______ _______ _______ _____ _____    ______ ____
ROOT
ATOM      1  CG  TYR A   1      53.661  -3.691  35.061  0.00  0.00    -0.020 A 
ATOM      2  CD2 TYR A   1      53.188  -4.618  35.962  0.00  0.00    -0.001 A 
ATOM      3  CE2 TYR A   1      51.849  -4.725  36.215  0.00  0.00    +0.036 A 
ATOM      4  CZ  TYR A   1      50.958  -3.908  35.568  0.00  0.00    +0.134 A 
ATOM      5  CE1 TYR A   1      51.418  -2.964  34.652  0.00  0.00    +0.036 A 
ATOM      6  CD1 TYR A   1      52.776  -2.855  34.403  0.00  0.00    -0.001 A 
ENDROOT
BRANCH   4   7
ATOM      7  OH  TYR A   1      49.627  -4.081  35.862  0.00  0.00    -0.506 OA
ATOM      8  HH  TYR A   1      49.138  -4.330  35.038  0.00  0.00    +0.292 HD
ENDBRANCH   4   7
BRANCH   1   9
ATOM      9  CB  TYR A   1      55.146  -3.622  34.808  0.00  0.00    +0.051 C 
BRANCH   9  10
ATOM     10  CA  TYR A   1      55.495  -4.583  33.703  0.00  0.00    +0.137 C 
BRANCH  10  11
ATOM     11  N   TYR A   1      55.457  -6.020  34.270  0.00  0.00    -0.239 NA
ATOM     12  H   TYR A   1      55.786  -6.263  35.226  0.00  0.00    +0.142 HD
ENDBRANCH  10  11
BRANCH  10  13
ATOM     13  C   TYR A   1      56.942  -4.265  33.631  0.00  0.00    +0.224 C 
ATOM     14  O   TYR A   1      57.742  -4.611  34.477  0.00  0.00    -0.287 OA
ENDBRANCH  10  13
ENDBRANCH   9  10
ENDBRANCH   1   9
TORSDOF 5
REMARK  Name = ../refined-set-2016/1gi4/1gi4_pocket.pdb
REMARK  145 active torsions:
REMARK  status: ('A' for Active; 'I' for Inactive)
REMARK    1  A    between atoms: _1  and  _5
REMARK    2  A    between atoms: _5  and  _6
REMARK    3  A    between atoms: _5  and  _8
REMARK    4  A    between atoms: _8  and  _9
REMARK    5  A    between atoms: _12  and  _14
REMARK    6  A    between atoms: _14  and  _15
REMARK    7  A    between atoms: _14  and  _17
REMARK    8  A    between atoms: _20  and  _22
REMARK    9  A    between atoms: _22  and  _23
REMARK   10  A    between atoms: _22  and  _25
REMARK   11  A    between atoms: _25  and  _26
REMARK   12  A    between atoms: _32  and  _34
REMARK   13  A    between atoms: _34  and  _35
REMARK   14  A    between atoms: _34  and  _37
REMARK   15  A    between atoms: _37  and  _38
REMARK   16  A    between atoms: _38  and  _62
REMARK   17  A    between atoms: _39  and  _41
REMARK   18  A    between atoms: _41  and  _42
REMARK   19  A    between atoms: _45  and  _47
REMARK   20  A    between atoms: _47  and  _48
REMARK   21  A    between atoms: _47  and  _50
REMARK   22  A    between atoms: _50  and  _51
REMARK   23  A    between atoms: _56  and  _58
REMARK   24  A    between atoms: _58  and  _59
REMARK   25  A    between atoms: _58  and  _61
REMARK   26  A    between atoms: _61  and  _62
REMARK   27  A    between atoms: _63  and  _65
REMARK   28  A    between atoms: _65  and  _66
REMARK   29  A    between atoms: _65  and  _68
REMARK   30  A    between atoms: _68  and  _69
REMARK   31  A    between atoms: _72  and  _74
REMARK   32  A    between atoms: _74  and  _75
REMARK   33  A    between atoms: _74  and  _77
REMARK   34  A    between atoms: _77  and  _78
REMARK   35  A    between atoms: _81  and  _83
REMARK   36  A    between atoms: _83  and  _84
REMARK   37  A    between atoms: _83  and  _86
REMARK   38  A    between atoms: _86  and  _87
REMARK   39  A    between atoms: _90  and  _92
REMARK   40  A    between atoms: _92  and  _93
REMARK   41  A    between atoms: _92  and  _95
REMARK   42  A    between atoms: _95  and  _96
REMARK   43  A    between atoms: _101  and  _103
REMARK   44  A    between atoms: _103  and  _104
REMARK   45  A    between atoms: _103  and  _106
REMARK   46  A    between atoms: _106  and  _107
REMARK   47  A    between atoms: _112  and  _113
REMARK   48  A    between atoms: _115  and  _117
REMARK   49  A    between atoms: _117  and  _118
REMARK   50  A    between atoms: _117  and  _120
REMARK   51  A    between atoms: _120  and  _121
REMARK   52  A    between atoms: _126  and  _127
REMARK   53  A    between atoms: _129  and  _131
REMARK   54  A    between atoms: _131  and  _132
REMARK   55  A    between atoms: _135  and  _137
REMARK   56  A    between atoms: _137  and  _138
REMARK   57  A    between atoms: _137  and  _140
REMARK   58  A    between atoms: _140  and  _141
REMARK   59  A    between atoms: _141  and  _142
REMARK   60  A    between atoms: _142  and  _143
REMARK   61  A    between atoms: _143  and  _144
REMARK   62  A    between atoms: _148  and  _150
REMARK   63  A    between atoms: _150  and  _151
REMARK   64  A    between atoms: _150  and  _153
REMARK   65  A    between atoms: _153  and  _154
REMARK   66  A    between atoms: _157  and  _159
REMARK   67  A    between atoms: _159  and  _160
REMARK   68  A    between atoms: _159  and  _162
REMARK   69  A    between atoms: _162  and  _163
REMARK   70  A    between atoms: _165  and  _167
REMARK   71  A    between atoms: _167  and  _168
REMARK   72  A    between atoms: _167  and  _170
REMARK   73  A    between atoms: _170  and  _171
REMARK   74  A    between atoms: _171  and  _281
REMARK   75  A    between atoms: _172  and  _174
REMARK   76  A    between atoms: _174  and  _175
REMARK   77  A    between atoms: _174  and  _177
REMARK   78  A    between atoms: _177  and  _178
REMARK   79  A    between atoms: _178  and  _179
REMARK   80  A    between atoms: _184  and  _186
REMARK   81  A    between atoms: _186  and  _187
REMARK   82  A    between atoms: _189  and  _191
REMARK   83  A    between atoms: _191  and  _192
REMARK   84  A    between atoms: _191  and  _194
REMARK   85  A    between atoms: _194  and  _195
REMARK   86  A    between atoms: _198  and  _200
REMARK   87  A    between atoms: _200  and  _201
REMARK   88  A    between atoms: _200  and  _203
REMARK   89  A    between atoms: _203  and  _204
REMARK   90  A    between atoms: _206  and  _208
REMARK   91  A    between atoms: _208  and  _209
REMARK   92  A    between atoms: _211  and  _213
REMARK   93  A    between atoms: _213  and  _214
REMARK   94  A    between atoms: _216  and  _218
REMARK   95  A    between atoms: _218  and  _219
REMARK   96  A    between atoms: _218  and  _221
REMARK   97  A    between atoms: _221  and  _222
REMARK   98  A    between atoms: _225  and  _227
REMARK   99  A    between atoms: _227  and  _228
REMARK  100  A    between atoms: _227  and  _230
REMARK  101  A    between atoms: _233  and  _235
REMARK  102  A    between atoms: _235  and  _236
REMARK  103  A    between atoms: _235  and  _238
REMARK  104  A    between atoms: _238  and  _239
REMARK  105  A    between atoms: _241  and  _243
REMARK  106  A    between atoms: _243  and  _244
REMARK  107  A    between atoms: _243  and  _246
REMARK  108  A    between atoms: _246  and  _247
REMARK  109  A    between atoms: _257  and  _259
REMARK  110  A    between atoms: _259  and  _260
REMARK  111  A    between atoms: _262  and  _264
REMARK  112  A    between atoms: _264  and  _265
REMARK  113  A    between atoms: _264  and  _267
REMARK  114  A    between atoms: _267  and  _268
REMARK  115  A    between atoms: _270  and  _272
REMARK  116  A    between atoms: _272  and  _273
REMARK  117  A    between atoms: _275  and  _277
REMARK  118  A    between atoms: _277  and  _278
REMARK  119  A    between atoms: _277  and  _280
REMARK  120  A    between atoms: _280  and  _281
REMARK  121  A    between atoms: _282  and  _284
REMARK  122  A    between atoms: _284  and  _285
REMARK  123  A    between atoms: _288  and  _290
REMARK  124  A    between atoms: _290  and  _291
REMARK  125  A    between atoms: _290  and  _293
REMARK  126  A    between atoms: _293  and  _294
REMARK  127  A    between atoms: _294  and  _295
REMARK  128  A    between atoms: _300  and  _302
REMARK  129  A    between atoms: _302  and  _303
REMARK  130  A    between atoms: _302  and  _305
REMARK  131  A    between atoms: _305  and  _306
REMARK  132  A    between atoms: _306  and  _307
REMARK  133  A    between atoms: _307  and  _308
REMARK  134  A    between atoms: _308  and  _309
REMARK  135  A    between atoms: _314  and  _315
REMARK  136  A    between atoms: _320  and  _322
REMARK  137  A    between atoms: _322  and  _323
REMARK  138  A    between atoms: _325  and  _327
REMARK  139  A    between atoms: _327  and  _328
REMARK  140  A    between atoms: _327  and  _330
REMARK  141  A    between atoms: _333  and  _335
REMARK  142  A    between atoms: _335  and  _336
REMARK  143  A    between atoms: _335  and  _338
REMARK  144  A    between atoms: _338  and  _339
REMARK  145  A    between atoms: _344  and  _345
REMARK                            x       y       z     vdW  Elec       q    Type
REMARK                         _______ _______ _______ _____ _____    ______ ____
ROOT
ATOM      1  CG  TYR A   1      35.232  -4.849  20.305  0.00  0.00    -0.020 A 
ATOM      2  CD2 TYR A   1      35.327  -5.553  21.477  0.00  0.00    -0.001 A 
ATOM      3  CE2 TYR A   1      36.540  -5.910  21.998  0.00  0.00    +0.036 A 
ATOM      4  CZ  TYR A   1      37.711  -5.579  21.369  0.00  0.00    +0.134 A 
ATOM      5  CE1 TYR A   1      37.643  -4.872  20.180  0.00  0.00    +0.036 A 
ATOM      6  CD1 TYR A   1      36.410  -4.509  19.646  0.00  0.00    -0.001 A 
ENDROOT
BRANCH   4   7
ATOM      7  OH  TYR A   1      38.888  -5.964  21.972  0.00  0.00    -0.506 OA
ATOM      8  HH  TYR A   1      39.427  -5.161  22.183  0.00  0.00    +0.292 HD
ENDBRANCH   4   7
BRANCH   1   9
ATOM      9  CB  TYR A   1      33.842  -4.445  19.795  0.00  0.00    +0.051 C 
BRANCH   9  10
ATOM     10  CA  TYR A   1      33.007  -5.624  19.259  0.00  0.00    +0.137 C 
BRANCH  10  11
ATOM     11  N   TYR A   1      33.713  -6.204  18.092  0.00  0.00    -0.239 NA
ATOM     12  H   TYR A   1      33.809  -5.621  17.236  0.00  0.00    +0.142 HD
ENDBRANCH  10  11
BRANCH  10  13
ATOM     13  C   TYR A   1      31.604  -5.124  18.864  0.00  0.00    +0.224 C 
ATOM     14  O   TYR A   1      31.308  -3.933  18.916  0.00  0.00    -0.287 OA
ENDBRANCH  10  13
ENDBRANCH   9  10
ENDBRANCH   1   9
TORSDOF 5
REMARK  Name = ../refined-set-2016/1gi4/1gi4_pocket.pdb
REMARK  145 active torsions:
REMARK  status: ('A' for Active; 'I' for Inactive)
REMARK    1  A    between atoms: _1  and  _5
REMARK    2  A    between atoms: _5  and  _6
REMARK    3  A    between atoms: _5  and  _8
REMARK    4  A    between atoms: _8  and  _9
REMARK    5  A    between atoms: _12  and  _14
REMARK    6  A    between atoms: _14  and  _15
REMARK    7  A    between atoms: _14  and  _17
REMARK    8  A    between atoms: _20  and  _22
REMARK    9  A    between atoms: _22  and  _23
REMARK   10  A    between atoms: _22  and  _25
REMARK   11  A    between atoms: _25  and  _26
REMARK   12  A    between atoms: _32  and  _34
REMARK   13  A    between atoms: _34  and  _35
REMARK   14  A    between atoms: _34  and  _37
REMARK   15  A    between atoms: _37  and  _38
REMARK   16  A    between atoms: _38  and  _62
REMARK   17  A    between atoms: _39  and  _41
REMARK   18  A    between atoms: _41  and  _42
REMARK   19  A    between atoms: _45  and  _47
REMARK   20  A    between atoms: _47  and  _48
REMARK   21  A    between atoms: _47  and  _50
REMARK   22  A    between atoms: _50  and  _51
REMARK   23  A    between atoms: _56  and  _58
REMARK   24  A    between atoms: _58  and  _59
REMARK   25  A    between atoms: _58  and  _61
REMARK   26  A    between atoms: _61  and  _62
REMARK   27  A    between atoms: _63  and  _65
REMARK   28  A    between atoms: _65  and  _66
REMARK   29  A    between atoms: _65  and  _68
REMARK   30  A    between atoms: _68  and  _69
REMARK   31  A    between atoms: _72  and  _74
REMARK   32  A    between atoms: _74  and  _75
REMARK   33  A    between atoms: _74  and  _77
REMARK   34  A    between atoms: _77  and  _78
REMARK   35  A    between atoms: _81  and  _83
REMARK   36  A    between atoms: _83  and  _84
REMARK   37  A    between atoms: _83  and  _86
REMARK   38  A    between atoms: _86  and  _87
REMARK   39  A    between atoms: _90  and  _92
REMARK   40  A    between atoms: _92  and  _93
REMARK   41  A    between atoms: _92  and  _95
REMARK   42  A    between atoms: _95  and  _96
REMARK   43  A    between atoms: _101  and  _103
REMARK   44  A    between atoms: _103  and  _104
REMARK   45  A    between atoms: _103  and  _106
REMARK   46  A    between atoms: _106  and  _107
REMARK   47  A    between atoms: _112  and  _113
REMARK   48  A    between atoms: _115  and  _117
REMARK   49  A    between atoms: _117  and  _118
REMARK   50  A    between atoms: _117  and  _120
REMARK   51  A    between atoms: _120  and  _121
REMARK   52  A    between atoms: _126  and  _127
REMARK   53  A    between atoms: _129  and  _131
REMARK   54  A    between atoms: _131  and  _132
REMARK   55  A    between atoms: _135  and  _137
REMARK   56  A    between atoms: _137  and  _138
REMARK   57  A    between atoms: _137  and  _140
REMARK   58  A    between atoms: _140  and  _141
REMARK   59  A    between atoms: _141  and  _142
REMARK   60  A    between atoms: _142  and  _143
REMARK   61  A    between atoms: _143  and  _144
REMARK   62  A    between atoms: _148  and  _150
REMARK   63  A    between atoms: _150  and  _151
REMARK   64  A    between atoms: _150  and  _153
REMARK   65  A    between atoms: _153  and  _154
REMARK   66  A    between atoms: _157  and  _159
REMARK   67  A    between atoms: _159  and  _160
REMARK   68  A    between atoms: _159  and  _162
REMARK   69  A    between atoms: _162  and  _163
REMARK   70  A    between atoms: _165  and  _167
REMARK   71  A    between atoms: _167  and  _168
REMARK   72  A    between atoms: _167  and  _170
REMARK   73  A    between atoms: _170  and  _171
REMARK   74  A    between atoms: _171  and  _281
REMARK   75  A    between atoms: _172  and  _174
REMARK   76  A    between atoms: _174  and  _175
REMARK   77  A    between atoms: _174  and  _177
REMARK   78  A    between atoms: _177  and  _178
REMARK   79  A    between atoms: _178  and  _179
REMARK   80  A    between atoms: _184  and  _186
REMARK   81  A    between atoms: _186  and  _187
REMARK   82  A    between atoms: _189  and  _191
REMARK   83  A    between atoms: _191  and  _192
REMARK   84  A    between atoms: _191  and  _194
REMARK   85  A    between atoms: _194  and  _195
REMARK   86  A    between atoms: _198  and  _200
REMARK   87  A    between atoms: _200  and  _201
REMARK   88  A    between atoms: _200  and  _203
REMARK   89  A    between atoms: _203  and  _204
REMARK   90  A    between atoms: _206  and  _208
REMARK   91  A    between atoms: _208  and  _209
REMARK   92  A    between atoms: _211  and  _213
REMARK   93  A    between atoms: _213  and  _214
REMARK   94  A    between atoms: _216  and  _218
REMARK   95  A    between atoms: _218  and  _219
REMARK   96  A    between atoms: _218  and  _221
REMARK   97  A    between atoms: _221  and  _222
REMARK   98  A    between atoms: _225  and  _227
REMARK   99  A    between atoms: _227  and  _228
REMARK  100  A    between atoms: _227  and  _230
REMARK  101  A    between atoms: _233  and  _235
REMARK  102  A    between atoms: _235  and  _236
REMARK  103  A    between atoms: _235  and  _238
REMARK  104  A    between atoms: _238  and  _239
REMARK  105  A    between atoms: _241  and  _243
REMARK  106  A    between atoms: _243  and  _244
REMARK  107  A    between atoms: _243  and  _246
REMARK  108  A    between atoms: _246  and  _247
REMARK  109  A    between atoms: _257  and  _259
REMARK  110  A    between atoms: _259  and  _260
REMARK  111  A    between atoms: _262  and  _264
REMARK  112  A    between atoms: _264  and  _265
REMARK  113  A    between atoms: _264  and  _267
REMARK  114  A    between atoms: _267  and  _268
REMARK  115  A    between atoms: _270  and  _272
REMARK  116  A    between atoms: _272  and  _273
REMARK  117  A    between atoms: _275  and  _277
REMARK  118  A    between atoms: _277  and  _278
REMARK  119  A    between atoms: _277  and  _280
REMARK  120  A    between atoms: _280  and  _281
REMARK  121  A    between atoms: _282  and  _284
REMARK  122  A    between atoms: _284  and  _285
REMARK  123  A    between atoms: _288  and  _290
REMARK  124  A    between atoms: _290  and  _291
REMARK  125  A    between atoms: _290  and  _293
REMARK  126  A    between atoms: _293  and  _294
REMARK  127  A    between atoms: _294  and  _295
REMARK  128  A    between atoms: _300  and  _302
REMARK  129  A    between atoms: _302  and  _303
REMARK  130  A    between atoms: _302  and  _305
REMARK  131  A    between atoms: _305  and  _306
REMARK  132  A    between atoms: _306  and  _307
REMARK  133  A    between atoms: _307  and  _308
REMARK  134  A    between atoms: _308  and  _309
REMARK  135  A    between atoms: _314  and  _315
REMARK  136  A    between atoms: _320  and  _322
REMARK  137  A    between atoms: _322  and  _323
REMARK  138  A    between atoms: _325  and  _327
REMARK  139  A    between atoms: _327  and  _328
REMARK  140  A    between atoms: _327  and  _330
REMARK  141  A    between atoms: _333  and  _335
REMARK  142  A    between atoms: _335  and  _336
REMARK  143  A    between atoms: _335  and  _338
REMARK  144  A    between atoms: _338  and  _339
REMARK  145  A    between atoms: _344  and  _345
REMARK                            x       y       z     vdW  Elec       q    Type
REMARK                         _______ _______ _______ _____ _____    ______ ____
ROOT
ATOM      1  CA  ALA A   1      44.204  -0.802  15.778  0.00  0.00    +0.133 C 
ATOM      2  CB  ALA A   1      45.079   0.396  16.182  0.00  0.00    +0.027 C 
ENDROOT
BRANCH   1   3
ATOM      3  N   ALA A   1      42.839  -0.774  16.383  0.00  0.00    -0.239 NA
ATOM      4  H   ALA A   1      42.696  -1.176  17.331  0.00  0.00    +0.142 HD
ENDBRANCH   1   3
BRANCH   1   5
ATOM      5  C   ALA A   1      44.830  -2.053  16.343  0.00  0.00    +0.224 C 
ATOM      6  O   ALA A   1      44.610  -2.407  17.498  0.00  0.00    -0.287 OA
ENDBRANCH   1   5
TORSDOF 2
REMARK  Name = ../refined-set-2016/1gi4/1gi4_pocket.pdb
REMARK  145 active torsions:
REMARK  status: ('A' for Active; 'I' for Inactive)
REMARK    1  A    between atoms: _1  and  _5
REMARK    2  A    between atoms: _5  and  _6
REMARK    3  A    between atoms: _5  and  _8
REMARK    4  A    between atoms: _8  and  _9
REMARK    5  A    between atoms: _12  and  _14
REMARK    6  A    between atoms: _14  and  _15
REMARK    7  A    between atoms: _14  and  _17
REMARK    8  A    between atoms: _20  and  _22
REMARK    9  A    between atoms: _22  and  _23
REMARK   10  A    between atoms: _22  and  _25
REMARK   11  A    between atoms: _25  and  _26
REMARK   12  A    between atoms: _32  and  _34
REMARK   13  A    between atoms: _34  and  _35
REMARK   14  A    between atoms: _34  and  _37
REMARK   15  A    between atoms: _37  and  _38
REMARK   16  A    between atoms: _38  and  _62
REMARK   17  A    between atoms: _39  and  _41
REMARK   18  A    between atoms: _41  and  _42
REMARK   19  A    between atoms: _45  and  _47
REMARK   20  A    between atoms: _47  and  _48
REMARK   21  A    between atoms: _47  and  _50
REMARK   22  A    between atoms: _50  and  _51
REMARK   23  A    between atoms: _56  and  _58
REMARK   24  A    between atoms: _58  and  _59
REMARK   25  A    between atoms: _58  and  _61
REMARK   26  A    between atoms: _61  and  _62
REMARK   27  A    between atoms: _63  and  _65
REMARK   28  A    between atoms: _65  and  _66
REMARK   29  A    between atoms: _65  and  _68
REMARK   30  A    between atoms: _68  and  _69
REMARK   31  A    between atoms: _72  and  _74
REMARK   32  A    between atoms: _74  and  _75
REMARK   33  A    between atoms: _74  and  _77
REMARK   34  A    between atoms: _77  and  _78
REMARK   35  A    between atoms: _81  and  _83
REMARK   36  A    between atoms: _83  and  _84
REMARK   37  A    between atoms: _83  and  _86
REMARK   38  A    between atoms: _86  and  _87
REMARK   39  A    between atoms: _90  and  _92
REMARK   40  A    between atoms: _92  and  _93
REMARK   41  A    between atoms: _92  and  _95
REMARK   42  A    between atoms: _95  and  _96
REMARK   43  A    between atoms: _101  and  _103
REMARK   44  A    between atoms: _103  and  _104
REMARK   45  A    between atoms: _103  and  _106
REMARK   46  A    between atoms: _106  and  _107
REMARK   47  A    between atoms: _112  and  _113
REMARK   48  A    between atoms: _115  and  _117
REMARK   49  A    between atoms: _117  and  _118
REMARK   50  A    between atoms: _117  and  _120
REMARK   51  A    between atoms: _120  and  _121
REMARK   52  A    between atoms: _126  and  _127
REMARK   53  A    between atoms: _129  and  _131
REMARK   54  A    between atoms: _131  and  _132
REMARK   55  A    between atoms: _135  and  _137
REMARK   56  A    between atoms: _137  and  _138
REMARK   57  A    between atoms: _137  and  _140
REMARK   58  A    between atoms: _140  and  _141
REMARK   59  A    between atoms: _141  and  _142
REMARK   60  A    between atoms: _142  and  _143
REMARK   61  A    between atoms: _143  and  _144
REMARK   62  A    between atoms: _148  and  _150
REMARK   63  A    between atoms: _150  and  _151
REMARK   64  A    between atoms: _150  and  _153
REMARK   65  A    between atoms: _153  and  _154
REMARK   66  A    between atoms: _157  and  _159
REMARK   67  A    between atoms: _159  and  _160
REMARK   68  A    between atoms: _159  and  _162
REMARK   69  A    between atoms: _162  and  _163
REMARK   70  A    between atoms: _165  and  _167
REMARK   71  A    between atoms: _167  and  _168
REMARK   72  A    between atoms: _167  and  _170
REMARK   73  A    between atoms: _170  and  _171
REMARK   74  A    between atoms: _171  and  _281
REMARK   75  A    between atoms: _172  and  _174
REMARK   76  A    between atoms: _174  and  _175
REMARK   77  A    between atoms: _174  and  _177
REMARK   78  A    between atoms: _177  and  _178
REMARK   79  A    between atoms: _178  and  _179
REMARK   80  A    between atoms: _184  and  _186
REMARK   81  A    between atoms: _186  and  _187
REMARK   82  A    between atoms: _189  and  _191
REMARK   83  A    between atoms: _191  and  _192
REMARK   84  A    between atoms: _191  and  _194
REMARK   85  A    between atoms: _194  and  _195
REMARK   86  A    between atoms: _198  and  _200
REMARK   87  A    between atoms: _200  and  _201
REMARK   88  A    between atoms: _200  and  _203
REMARK   89  A    between atoms: _203  and  _204
REMARK   90  A    between atoms: _206  and  _208
REMARK   91  A    between atoms: _208  and  _209
REMARK   92  A    between atoms: _211  and  _213
REMARK   93  A    between atoms: _213  and  _214
REMARK   94  A    between atoms: _216  and  _218
REMARK   95  A    between atoms: _218  and  _219
REMARK   96  A    between atoms: _218  and  _221
REMARK   97  A    between atoms: _221  and  _222
REMARK   98  A    between atoms: _225  and  _227
REMARK   99  A    between atoms: _227  and  _228
REMARK  100  A    between atoms: _227  and  _230
REMARK  101  A    between atoms: _233  and  _235
REMARK  102  A    between atoms: _235  and  _236
REMARK  103  A    between atoms: _235  and  _238
REMARK  104  A    between atoms: _238  and  _239
REMARK  105  A    between atoms: _241  and  _243
REMARK  106  A    between atoms: _243  and  _244
REMARK  107  A    between atoms: _243  and  _246
REMARK  108  A    between atoms: _246  and  _247
REMARK  109  A    between atoms: _257  and  _259
REMARK  110  A    between atoms: _259  and  _260
REMARK  111  A    between atoms: _262  and  _264
REMARK  112  A    between atoms: _264  and  _265
REMARK  113  A    between atoms: _264  and  _267
REMARK  114  A    between atoms: _267  and  _268
REMARK  115  A    between atoms: _270  and  _272
REMARK  116  A    between atoms: _272  and  _273
REMARK  117  A    between atoms: _275  and  _277
REMARK  118  A    between atoms: _277  and  _278
REMARK  119  A    between atoms: _277  and  _280
REMARK  120  A    between atoms: _280  and  _281
REMARK  121  A    between atoms: _282  and  _284
REMARK  122  A    between atoms: _284  and  _285
REMARK  123  A    between atoms: _288  and  _290
REMARK  124  A    between atoms: _290  and  _291
REMARK  125  A    between atoms: _290  and  _293
REMARK  126  A    between atoms: _293  and  _294
REMARK  127  A    between atoms: _294  and  _295
REMARK  128  A    between atoms: _300  and  _302
REMARK  129  A    between atoms: _302  and  _303
REMARK  130  A    between atoms: _302  and  _305
REMARK  131  A    between atoms: _305  and  _306
REMARK  132  A    between atoms: _306  and  _307
REMARK  133  A    between atoms: _307  and  _308
REMARK  134  A    between atoms: _308  and  _309
REMARK  135  A    between atoms: _314  and  _315
REMARK  136  A    between atoms: _320  and  _322
REMARK  137  A    between atoms: _322  and  _323
REMARK  138  A    between atoms: _325  and  _327
REMARK  139  A    between atoms: _327  and  _328
REMARK  140  A    between atoms: _327  and  _330
REMARK  141  A    between atoms: _333  and  _335
REMARK  142  A    between atoms: _335  and  _336
REMARK  143  A    between atoms: _335  and  _338
REMARK  144  A    between atoms: _338  and  _339
REMARK  145  A    between atoms: _344  and  _345
REMARK                            x       y       z     vdW  Elec       q    Type
REMARK                         _______ _______ _______ _____ _____    ______ ____
ROOT
ATOM      1  CB  CYS A   8      46.301  -7.521  26.750  0.00  0.00    +0.098 C 
ENDROOT
BRANCH   1   2
ATOM      2  SG  CYS A   8      45.779  -6.324  27.979  0.00  0.00    -0.080 S 
BRANCH   2   3
ATOM      3  SG  TRP A   4      47.486  -5.907  28.985  0.00  0.00    -0.080 S 
BRANCH   3   4
ATOM      4  CB  TRP A   4      48.272  -4.660  27.948  0.00  0.00    +0.098 C 
BRANCH   4   5
ATOM      5  CA  TRP A   4      47.388  -3.432  27.598  0.00  0.00    +0.160 C 
BRANCH   5   7
ATOM      6  C   SER A   3      47.863  -3.230  25.214  0.00  0.00    +0.243 C 
ATOM      7  N   TRP A   4      48.045  -2.797  26.438  0.00  0.00    -0.296 N 
ATOM      8  H   TRP A   4      48.671  -1.982  26.597  0.00  0.00    +0.150 HD
ATOM      9  O   SER A   3      47.135  -4.192  24.949  0.00  0.00    -0.273 OA
BRANCH   6  10
ATOM     10  CA  SER A   3      48.647  -2.453  24.085  0.00  0.00    +0.178 C 
BRANCH  10  13
ATOM     11  C   VAL A   2      49.051  -4.311  22.624  0.00  0.00    +0.241 C 
ATOM     12  O   VAL A   2      50.115  -4.550  23.159  0.00  0.00    -0.273 OA
ATOM     13  N   SER A   3      48.273  -3.329  22.971  0.00  0.00    -0.295 N 
ATOM     14  H   SER A   3      47.384  -3.165  22.457  0.00  0.00    +0.150 HD
BRANCH  11  15
ATOM     15  CA  VAL A   2      48.559  -5.182  21.503  0.00  0.00    +0.160 C 
BRANCH  15  17
ATOM     16  C   ILE A   1      49.503  -6.849  20.009  0.00  0.00    +0.238 C 
ATOM     17  N   VAL A   2      49.649  -6.119  21.080  0.00  0.00    -0.297 N 
ATOM     18  H   VAL A   2      50.522  -6.187  21.641  0.00  0.00    +0.150 HD
ATOM     19  O   ILE A   1      48.520  -6.812  19.278  0.00  0.00    -0.274 OA
BRANCH  16  20
ATOM     20  CA  ILE A   1      50.657  -7.798  19.660  0.00  0.00    +0.145 C 
BRANCH  20  21
ATOM     21  N   ILE A   1      50.115  -9.185  19.675  0.00  0.00    -0.238 NA
ATOM     22  H   ILE A   1      49.183  -9.366  19.250  0.00  0.00    +0.142 HD
ENDBRANCH  20  21
BRANCH  20  23
ATOM     23  CB  ILE A   1      51.180  -7.475  18.276  0.00  0.00    +0.026 C 
BRANCH  23  24
ATOM     24  CG  ILE A   1      52.252  -8.497  17.825  0.00  0.00    -0.000 C 
BRANCH  24  25
ATOM     25  CD  ILE A   1      53.010  -7.868  16.629  0.00  0.00    -0.024 C 
BRANCH  25  26
ATOM     26  CE  ILE A   1      53.877  -8.896  15.909  0.00  0.00    -0.086 C 
BRANCH  26  27
ATOM     27  NZ  ILE A   1      53.013  -9.719  15.013  0.00  0.00    +0.380 N 
ATOM     28  HZ1 ILE A   1      52.290 -10.205  15.581  0.00  0.00    -0.089 HD
ATOM     29  HZ2 ILE A   1      53.599 -10.422  14.519  0.00  0.00    -0.089 HD
ATOM     30  HZ3 ILE A   1      52.550  -9.101  14.317  0.00  0.00    -0.089 HD
ENDBRANCH  26  27
ENDBRANCH  25  26
ENDBRANCH  24  25
ENDBRANCH  23  24
ENDBRANCH  20  23
ENDBRANCH  16  20
ENDBRANCH  15  17
BRANCH  15  31
ATOM     31  CB  VAL A   2      47.370  -6.016  22.055  0.00  0.00    +0.143 C 
BRANCH  31  32
ATOM     32  CG  VAL A   2      46.003  -5.314  22.293  0.00  0.00    +0.367 C 
ATOM     33  OD2 VAL A   2      45.164  -5.966  22.907  0.00  0.00    -0.246 OA
ATOM     34  OD1 VAL A   2      45.857  -4.188  21.854  0.00  0.00    -0.246 OA
ENDBRANCH  31  32
ENDBRANCH  15  31
ENDBRANCH  11  15
ENDBRANCH  10  13
BRANCH  10  35
ATOM     35  CB  SER A   3      48.122  -0.962  23.846  0.00  0.00    +0.166 C 
BRANCH  35  36
ATOM     36  OG  SER A   3      46.745  -0.979  23.495  0.00  0.00    -0.380 OA
ATOM     37  H   SER A   3      46.624  -1.504  22.664  0.00  0.00    +0.211 HD
ENDBRANCH  35  36
ENDBRANCH  10  35
ENDBRANCH   6  10
ENDBRANCH   5   7
BRANCH   5  38
ATOM     38  C   TRP A   4      47.254  -2.428  28.751  0.00  0.00    +0.242 C 
ATOM     39  N   GLY A   5      46.723  -2.902  29.829  0.00  0.00    -0.297 N 
ATOM     40  H   GLY A   5      46.424  -3.898  29.850  0.00  0.00    +0.150 HD
ATOM     41  O   TRP A   4      47.641  -1.280  28.617  0.00  0.00    -0.273 OA
BRANCH  39  42
ATOM     42  CA  GLY A   5      46.527  -2.063  31.040  0.00  0.00    +0.149 C 
BRANCH  42  43
ATOM     43  C   GLY A   5      47.924  -1.516  31.427  0.00  0.00    +0.241 C 
ATOM     44  N   SER A   6      47.940  -0.253  31.732  0.00  0.00    -0.295 N 
ATOM     45  H   SER A   6      47.057   0.296  31.721  0.00  0.00    +0.150 HD
ATOM     46  O   GLY A   5      48.932  -2.216  31.472  0.00  0.00    -0.273 OA
BRANCH  44  47
ATOM     47  CA  SER A   6      49.240   0.418  32.102  0.00  0.00    +0.176 C 
BRANCH  47  48
ATOM     48  C   SER A   6      49.659   1.316  30.942  0.00  0.00    +0.243 C 
ATOM     49  O   SER A   6      50.311   2.330  31.119  0.00  0.00    -0.273 OA
ATOM     50  N   GLY A   7      49.263   0.877  29.769  0.00  0.00    -0.296 N 
ATOM     51  H   GLY A   7      48.731  -0.015  29.714  0.00  0.00    +0.150 HD
BRANCH  50  52
ATOM     52  CA  GLY A   7      49.558   1.628  28.513  0.00  0.00    +0.160 C 
BRANCH  52  53
ATOM     53  C   GLY A   7      48.409   2.641  28.394  0.00  0.00    +0.241 C 
ATOM     54  N   CYS A   8      47.309   2.368  29.061  0.00  0.00    -0.295 N 
ATOM     55  H   CYS A   8      47.284   1.481  29.603  0.00  0.00    +0.150 HD
ATOM     56  O   GLY A   7      48.576   3.615  27.686  0.00  0.00    -0.273 OA
BRANCH  54  57
ATOM     57  CA  CYS A   8      46.072   3.249  29.100  0.00  0.00    +0.178 C 
BRANCH  57  58
ATOM     58  C   CYS A   8      46.442   4.728  29.071  0.00  0.00    +0.243 C 
ATOM     59  O   CYS A   8      47.337   5.091  29.809  0.00  0.00    -0.273 OA
ATOM     60  N   ALA A   9      45.789   5.536  28.291  0.00  0.00    -0.295 N 
ATOM     61  H   ALA A   9      45.029   5.170  27.682  0.00  0.00    +0.150 HD
BRANCH  60  62
ATOM     62  CA  ALA A   9      46.126   6.981  28.268  0.00  0.00    +0.176 C 
BRANCH  62  63
ATOM     63  C   ALA A   9      47.272   7.379  27.329  0.00  0.00    +0.243 C 
ATOM     64  O   ALA A   9      47.419   8.528  26.974  0.00  0.00    -0.273 OA
ATOM     65  N   GLN A  10      48.058   6.409  26.953  0.00  0.00    -0.296 N 
ATOM     66  H   GLN A  10      47.885   5.432  27.265  0.00  0.00    +0.150 HD
BRANCH  65  67
ATOM     67  CA  GLN A  10      49.198   6.730  26.075  0.00  0.00    +0.163 C 
BRANCH  67  68
ATOM     68  C   GLN A  10      48.829   6.928  24.596  0.00  0.00    +0.229 C 
ATOM     69  O   GLN A  10      47.700   6.763  24.164  0.00  0.00    -0.286 OA
ENDBRANCH  67  68
ENDBRANCH  65  67
ENDBRANCH  62  63
ENDBRANCH  60  62
ENDBRANCH  57  58
BRANCH  57  70
ATOM     70  CB  CYS A   8      45.297   3.102  30.401  0.00  0.00    +0.166 C 
BRANCH  70  71
ATOM     71  O   CYS A   8      45.249   1.696  30.497  0.00  0.00    -0.380 OA
ATOM     72  H   CYS A   8      44.761   1.439  31.319  0.00  0.00    +0.211 HD
ENDBRANCH  70  71
ENDBRANCH  57  70
ENDBRANCH  54  57
ENDBRANCH  52  53
BRANCH  52  73
ATOM     73  CB  GLY A   7      49.549   0.735  27.261  0.00  0.00    +0.143 C 
BRANCH  73  74
ATOM     74  CG  GLY A   7      50.710  -0.288  27.256  0.00  0.00    +0.367 C 
ATOM     75  OD2 GLY A   7      51.792   0.159  27.606  0.00  0.00    -0.246 OA
ATOM     76  OD1 GLY A   7      50.467  -1.435  26.895  0.00  0.00    -0.246 OA
ENDBRANCH  73  74
ENDBRANCH  52  73
ENDBRANCH  50  52
ENDBRANCH  47  48
ENDBRANCH  44  47
ENDBRANCH  42  43
BRANCH  42  77
ATOM     77  CB  GLY A   5      45.893  -2.971  32.125  0.00  0.00    +0.039 C 
BRANCH  77  78
ATOM     78  CG  GLY A   5      45.887  -2.318  33.600  0.00  0.00    +0.087 C 
BRANCH  78  79
ATOM     79  CD  GLY A   5      47.203  -2.527  34.162  0.00  0.00    +0.219 C 
ATOM     80  NE2 GLY A   5      47.784  -1.569  34.765  0.00  0.00    -0.329 N 
ATOM     81 HE21 GLY A   5      48.734  -1.706  35.164  0.00  0.00    +0.145 HD
ATOM     82 HE22 GLY A   5      47.308  -0.649  34.858  0.00  0.00    +0.145 HD
ATOM     83  OE1 GLY A   5      47.707  -3.624  34.021  0.00  0.00    -0.275 OA
ENDBRANCH  78  79
ENDBRANCH  77  78
ENDBRANCH  42  77
ENDBRANCH  39  42
ENDBRANCH   5  38
ENDBRANCH   4   5
ENDBRANCH   3   4
ENDBRANCH   2   3
ENDBRANCH   1   2
BRANCH   1  84
ATOM     84  CA  CYS A   8      45.192  -8.012  25.837  0.00  0.00    +0.160 C 
BRANCH  84  85
ATOM     85  N   CYS A   8      44.104  -8.623  26.623  0.00  0.00    -0.296 N 
ATOM     86  H   CYS A   8      44.192  -9.610  26.937  0.00  0.00    +0.150 HD
ATOM     87  C   GLY A   7      43.037  -7.946  26.929  0.00  0.00    +0.243 C 
ATOM     88  O   GLY A   7      42.837  -6.777  26.620  0.00  0.00    -0.273 OA
BRANCH  87  89
ATOM     89  CA  GLY A   7      41.980  -8.680  27.737  0.00  0.00    +0.176 C 
BRANCH  89  90
ATOM     90  N   GLY A   7      40.688  -8.048  27.325  0.00  0.00    -0.295 N 
ATOM     91  H   GLY A   7      40.132  -7.512  28.022  0.00  0.00    +0.150 HD
ATOM     92  C   SER A   6      40.250  -8.162  26.097  0.00  0.00    +0.243 C 
ATOM     93  O   SER A   6      40.840  -8.738  25.197  0.00  0.00    -0.273 OA
BRANCH  92  94
ATOM     94  CA  SER A   6      38.929  -7.478  25.811  0.00  0.00    +0.178 C 
BRANCH  94  95
ATOM     95  N   SER A   6      39.332  -6.301  24.982  0.00  0.00    -0.295 N 
ATOM     96  C   GLY A   5      39.617  -5.173  25.564  0.00  0.00    +0.243 C 
ATOM     97  O   GLY A   5      39.577  -5.021  26.768  0.00  0.00    -0.273 OA
ATOM     98  H   SER A   6      39.384  -6.383  23.947  0.00  0.00    +0.150 HD
BRANCH  96  99
ATOM     99  CA  GLY A   5      40.029  -4.006  24.679  0.00  0.00    +0.176 C 
BRANCH  99 100
ATOM    100  N   GLY A   5      39.968  -2.780  25.514  0.00  0.00    -0.295 N 
ATOM    101  H   GLY A   5      39.556  -2.847  26.466  0.00  0.00    +0.150 HD
ATOM    102  C   TRP A   4      40.406  -1.630  25.108  0.00  0.00    +0.241 C 
ATOM    103  O   TRP A   4      40.937  -1.430  24.037  0.00  0.00    -0.273 OA
BRANCH 102 104
ATOM    104  CA  TRP A   4      40.242  -0.518  26.086  0.00  0.00    +0.153 C 
BRANCH 104 105
ATOM    105  N   TRP A   4      40.662   0.807  25.569  0.00  0.00    -0.297 N 
ATOM    106  C   SER A   3      41.112   1.679  26.418  0.00  0.00    +0.243 C 
ATOM    107  O   SER A   3      41.194   1.441  27.607  0.00  0.00    -0.273 OA
ATOM    108  H   TRP A   4      40.598   1.031  24.555  0.00  0.00    +0.150 HD
BRANCH 106 109
ATOM    109  CA  SER A   3      41.535   3.042  25.892  0.00  0.00    +0.178 C 
BRANCH 109 110
ATOM    110  N   SER A   3      42.768   3.084  25.085  0.00  0.00    -0.295 N 
ATOM    111  C   VAL A   2      43.829   3.744  25.476  0.00  0.00    +0.241 C 
ATOM    112  O   VAL A   2      43.915   4.364  26.530  0.00  0.00    -0.273 OA
ATOM    113  H   SER A   3      42.796   2.575  24.179  0.00  0.00    +0.150 HD
BRANCH 111 114
ATOM    114  CA  VAL A   2      45.048   3.712  24.507  0.00  0.00    +0.148 C 
BRANCH 114 115
ATOM    115  N   VAL A   2      45.241   5.138  24.103  0.00  0.00    -0.297 N 
ATOM    116  H   VAL A   2      46.118   5.620  24.388  0.00  0.00    +0.150 HD
ATOM    117  C   ILE A   1      44.357   5.809  23.407  0.00  0.00    +0.238 C 
ATOM    118  O   ILE A   1      43.304   5.327  23.003  0.00  0.00    -0.274 OA
BRANCH 117 119
ATOM    119  CA  ILE A   1      44.701   7.272  23.087  0.00  0.00    +0.145 C 
BRANCH 119 120
ATOM    120  CB  ILE A   1      43.829   8.261  23.962  0.00  0.00    +0.025 C 
ATOM    121  CG2 ILE A   1      44.173   8.130  25.470  0.00  0.00    +0.002 C 
BRANCH 120 122
ATOM    122  CG1 ILE A   1      44.068   9.712  23.472  0.00  0.00    +0.002 C 
ATOM    123  CD1 ILE A   1      43.084  10.682  24.092  0.00  0.00    +0.000 C 
ENDBRANCH 120 122
ENDBRANCH 119 120
BRANCH 119 124
ATOM    124  N   ILE A   1      44.347   7.375  21.650  0.00  0.00    -0.238 NA
ATOM    125  H   ILE A   1      43.398   7.076  21.347  0.00  0.00    +0.142 HD
ENDBRANCH 119 124
ENDBRANCH 117 119
ENDBRANCH 114 115
BRANCH 114 126
ATOM    126  CB  VAL A   2      46.300   3.227  25.244  0.00  0.00    +0.027 C 
ATOM    127  CG2 VAL A   2      46.045   1.813  25.756  0.00  0.00    +0.002 C 
ATOM    128  CG1 VAL A   2      47.519   3.337  24.313  0.00  0.00    +0.002 C 
ENDBRANCH 114 126
ENDBRANCH 111 114
ENDBRANCH 109 110
BRANCH 109 129
ATOM    129  CB  SER A   3      40.466   3.689  24.972  0.00  0.00    +0.166 C 
BRANCH 129 130
ATOM    130  OG  SER A   3      39.260   3.826  25.704  0.00  0.00    -0.380 OA
ATOM    131  H   SER A   3      39.418   4.402  26.494  0.00  0.00    +0.211 HD
ENDBRANCH 129 130
ENDBRANCH 109 129
ENDBRANCH 106 109
ENDBRANCH 104 105
BRANCH 104 132
ATOM    132  CB  TRP A   4      38.768  -0.436  26.520  0.00  0.00    +0.057 C 
BRANCH 132 133
ATOM    133  CG  TRP A   4      37.761  -0.039  25.418  0.00  0.00    -0.002 A 
ATOM    134  CD1 TRP A   4      37.544   1.210  24.928  0.00  0.00    +0.068 A 
ATOM    135  NE1 TRP A   4      36.576   1.050  24.038  0.00  0.00    -0.352 N 
ATOM    136  CE2 TRP A   4      36.137  -0.179  23.880  0.00  0.00    +0.056 A 
ATOM    137  CZ2 TRP A   4      35.202  -0.852  23.103  0.00  0.00    +0.017 A 
ATOM    138  CH2 TRP A   4      35.048  -2.222  23.253  0.00  0.00    +0.001 A 
ATOM    139  CZ3 TRP A   4      35.830  -2.929  24.159  0.00  0.00    +0.000 A 
ATOM    140  CE3 TRP A   4      36.777  -2.255  24.925  0.00  0.00    +0.001 A 
ATOM    141  HE1 TRP A   4      36.187   1.848  23.497  0.00  0.00    +0.166 HD
ATOM    142  CD2 TRP A   4      36.923  -0.882  24.790  0.00  0.00    +0.013 A 
ENDBRANCH 132 133
ENDBRANCH 104 132
ENDBRANCH 102 104
ENDBRANCH  99 100
ENDBRANCH  96  99
ENDBRANCH  94  95
BRANCH  94 143
ATOM    143  CB  SER A   6      38.025  -8.425  25.007  0.00  0.00    +0.166 C 
BRANCH 143 144
ATOM    144  OG  SER A   6      36.826  -7.695  24.777  0.00  0.00    -0.380 OA
ATOM    145  H   SER A   6      36.195  -8.254  24.259  0.00  0.00    +0.211 HD
ENDBRANCH 143 144
ENDBRANCH  94 143
ENDBRANCH  92  94
ENDBRANCH  89  90
ENDBRANCH  87  89
ENDBRANCH  84  85
BRANCH  84 146
ATOM    146  C   CYS A   8      45.769  -9.056  24.905  0.00  0.00    +0.242 C 
ATOM    147  O   CYS A   8      46.033 -10.177  25.283  0.00  0.00    -0.273 OA
ATOM    148  N   ALA A   9      45.960  -8.634  23.701  0.00  0.00    -0.297 N 
ATOM    149  H   ALA A   9      45.698  -7.651  23.486  0.00  0.00    +0.150 HD
BRANCH 148 150
ATOM    150  CA  ALA A   9      46.529  -9.455  22.600  0.00  0.00    +0.149 C 
ATOM    151  CB  ALA A   9      48.032  -9.702  22.947  0.00  0.00    +0.031 C 
BRANCH 150 152
ATOM    152  C   ALA A   9      45.810 -10.769  22.316  0.00  0.00    +0.241 C 
ATOM    153  N   GLN A  10      44.537 -10.759  22.545  0.00  0.00    -0.298 N 
ATOM    154  H   GLN A  10      44.074  -9.902  22.910  0.00  0.00    +0.150 HD
ATOM    155  O   ALA A   9      46.422 -11.725  21.887  0.00  0.00    -0.273 OA
BRANCH 153 156
ATOM    156  CA  GLN A  10      43.745 -11.985  22.280  0.00  0.00    +0.137 C 
BRANCH 156 157
ATOM    157  C   GLN A  10      43.369 -11.922  20.777  0.00  0.00    +0.227 C 
ATOM    158  O   GLN A  10      43.272 -10.875  20.151  0.00  0.00    -0.286 OA
ENDBRANCH 156 157
BRANCH 156 159
ATOM    159  CB  GLN A  10      42.440 -12.014  23.152  0.00  0.00    +0.037 C 
BRANCH 159 160
ATOM    160  CG  GLN A  10      42.816 -11.991  24.658  0.00  0.00    +0.087 C 
BRANCH 160 161
ATOM    161  CD  GLN A  10      43.814 -13.115  24.988  0.00  0.00    +0.219 C 
ATOM    162  NE2 GLN A  10      44.988 -12.847  25.473  0.00  0.00    -0.329 N 
ATOM    163 HE21 GLN A  10      45.650 -13.619  25.688  0.00  0.00    +0.145 HD
ATOM    164 HE22 GLN A  10      45.266 -11.860  25.646  0.00  0.00    +0.145 HD
ATOM    165  OE1 GLN A  10      43.540 -14.283  24.805  0.00  0.00    -0.275 OA
ENDBRANCH 160 161
ENDBRANCH 159 160
ENDBRANCH 156 159
ENDBRANCH 153 156
ENDBRANCH 150 152
ENDBRANCH 148 150
ENDBRANCH  84 146
ENDBRANCH   1  84
TORSDOF 73
REMARK  Name = ../refined-set-2016/1gi4/1gi4_pocket.pdb
REMARK  145 active torsions:
REMARK  status: ('A' for Active; 'I' for Inactive)
REMARK    1  A    between atoms: _1  and  _5
REMARK    2  A    between atoms: _5  and  _6
REMARK    3  A    between atoms: _5  and  _8
REMARK    4  A    between atoms: _8  and  _9
REMARK    5  A    between atoms: _12  and  _14
REMARK    6  A    between atoms: _14  and  _15
REMARK    7  A    between atoms: _14  and  _17
REMARK    8  A    between atoms: _20  and  _22
REMARK    9  A    between atoms: _22  and  _23
REMARK   10  A    between atoms: _22  and  _25
REMARK   11  A    between atoms: _25  and  _26
REMARK   12  A    between atoms: _32  and  _34
REMARK   13  A    between atoms: _34  and  _35
REMARK   14  A    between atoms: _34  and  _37
REMARK   15  A    between atoms: _37  and  _38
REMARK   16  A    between atoms: _38  and  _62
REMARK   17  A    between atoms: _39  and  _41
REMARK   18  A    between atoms: _41  and  _42
REMARK   19  A    between atoms: _45  and  _47
REMARK   20  A    between atoms: _47  and  _48
REMARK   21  A    between atoms: _47  and  _50
REMARK   22  A    between atoms: _50  and  _51
REMARK   23  A    between atoms: _56  and  _58
REMARK   24  A    between atoms: _58  and  _59
REMARK   25  A    between atoms: _58  and  _61
REMARK   26  A    between atoms: _61  and  _62
REMARK   27  A    between atoms: _63  and  _65
REMARK   28  A    between atoms: _65  and  _66
REMARK   29  A    between atoms: _65  and  _68
REMARK   30  A    between atoms: _68  and  _69
REMARK   31  A    between atoms: _72  and  _74
REMARK   32  A    between atoms: _74  and  _75
REMARK   33  A    between atoms: _74  and  _77
REMARK   34  A    between atoms: _77  and  _78
REMARK   35  A    between atoms: _81  and  _83
REMARK   36  A    between atoms: _83  and  _84
REMARK   37  A    between atoms: _83  and  _86
REMARK   38  A    between atoms: _86  and  _87
REMARK   39  A    between atoms: _90  and  _92
REMARK   40  A    between atoms: _92  and  _93
REMARK   41  A    between atoms: _92  and  _95
REMARK   42  A    between atoms: _95  and  _96
REMARK   43  A    between atoms: _101  and  _103
REMARK   44  A    between atoms: _103  and  _104
REMARK   45  A    between atoms: _103  and  _106
REMARK   46  A    between atoms: _106  and  _107
REMARK   47  A    between atoms: _112  and  _113
REMARK   48  A    between atoms: _115  and  _117
REMARK   49  A    between atoms: _117  and  _118
REMARK   50  A    between atoms: _117  and  _120
REMARK   51  A    between atoms: _120  and  _121
REMARK   52  A    between atoms: _126  and  _127
REMARK   53  A    between atoms: _129  and  _131
REMARK   54  A    between atoms: _131  and  _132
REMARK   55  A    between atoms: _135  and  _137
REMARK   56  A    between atoms: _137  and  _138
REMARK   57  A    between atoms: _137  and  _140
REMARK   58  A    between atoms: _140  and  _141
REMARK   59  A    between atoms: _141  and  _142
REMARK   60  A    between atoms: _142  and  _143
REMARK   61  A    between atoms: _143  and  _144
REMARK   62  A    between atoms: _148  and  _150
REMARK   63  A    between atoms: _150  and  _151
REMARK   64  A    between atoms: _150  and  _153
REMARK   65  A    between atoms: _153  and  _154
REMARK   66  A    between atoms: _157  and  _159
REMARK   67  A    between atoms: _159  and  _160
REMARK   68  A    between atoms: _159  and  _162
REMARK   69  A    between atoms: _162  and  _163
REMARK   70  A    between atoms: _165  and  _167
REMARK   71  A    between atoms: _167  and  _168
REMARK   72  A    between atoms: _167  and  _170
REMARK   73  A    between atoms: _170  and  _171
REMARK   74  A    between atoms: _171  and  _281
REMARK   75  A    between atoms: _172  and  _174
REMARK   76  A    between atoms: _174  and  _175
REMARK   77  A    between atoms: _174  and  _177
REMARK   78  A    between atoms: _177  and  _178
REMARK   79  A    between atoms: _178  and  _179
REMARK   80  A    between atoms: _184  and  _186
REMARK   81  A    between atoms: _186  and  _187
REMARK   82  A    between atoms: _189  and  _191
REMARK   83  A    between atoms: _191  and  _192
REMARK   84  A    between atoms: _191  and  _194
REMARK   85  A    between atoms: _194  and  _195
REMARK   86  A    between atoms: _198  and  _200
REMARK   87  A    between atoms: _200  and  _201
REMARK   88  A    between atoms: _200  and  _203
REMARK   89  A    between atoms: _203  and  _204
REMARK   90  A    between atoms: _206  and  _208
REMARK   91  A    between atoms: _208  and  _209
REMARK   92  A    between atoms: _211  and  _213
REMARK   93  A    between atoms: _213  and  _214
REMARK   94  A    between atoms: _216  and  _218
REMARK   95  A    between atoms: _218  and  _219
REMARK   96  A    between atoms: _218  and  _221
REMARK   97  A    between atoms: _221  and  _222
REMARK   98  A    between atoms: _225  and  _227
REMARK   99  A    between atoms: _227  and  _228
REMARK  100  A    between atoms: _227  and  _230
REMARK  101  A    between atoms: _233  and  _235
REMARK  102  A    between atoms: _235  and  _236
REMARK  103  A    between atoms: _235  and  _238
REMARK  104  A    between atoms: _238  and  _239
REMARK  105  A    between atoms: _241  and  _243
REMARK  106  A    between atoms: _243  and  _244
REMARK  107  A    between atoms: _243  and  _246
REMARK  108  A    between atoms: _246  and  _247
REMARK  109  A    between atoms: _257  and  _259
REMARK  110  A    between atoms: _259  and  _260
REMARK  111  A    between atoms: _262  and  _264
REMARK  112  A    between atoms: _264  and  _265
REMARK  113  A    between atoms: _264  and  _267
REMARK  114  A    between atoms: _267  and  _268
REMARK  115  A    between atoms: _270  and  _272
REMARK  116  A    between atoms: _272  and  _273
REMARK  117  A    between atoms: _275  and  _277
REMARK  118  A    between atoms: _277  and  _278
REMARK  119  A    between atoms: _277  and  _280
REMARK  120  A    between atoms: _280  and  _281
REMARK  121  A    between atoms: _282  and  _284
REMARK  122  A    between atoms: _284  and  _285
REMARK  123  A    between atoms: _288  and  _290
REMARK  124  A    between atoms: _290  and  _291
REMARK  125  A    between atoms: _290  and  _293
REMARK  126  A    between atoms: _293  and  _294
REMARK  127  A    between atoms: _294  and  _295
REMARK  128  A    between atoms: _300  and  _302
REMARK  129  A    between atoms: _302  and  _303
REMARK  130  A    between atoms: _302  and  _305
REMARK  131  A    between atoms: _305  and  _306
REMARK  132  A    between atoms: _306  and  _307
REMARK  133  A    between atoms: _307  and  _308
REMARK  134  A    between atoms: _308  and  _309
REMARK  135  A    between atoms: _314  and  _315
REMARK  136  A    between atoms: _320  and  _322
REMARK  137  A    between atoms: _322  and  _323
REMARK  138  A    between atoms: _325  and  _327
REMARK  139  A    between atoms: _327  and  _328
REMARK  140  A    between atoms: _327  and  _330
REMARK  141  A    between atoms: _333  and  _335
REMARK  142  A    between atoms: _335  and  _336
REMARK  143  A    between atoms: _335  and  _338
REMARK  144  A    between atoms: _338  and  _339
REMARK  145  A    between atoms: _344  and  _345
REMARK                            x       y       z     vdW  Elec       q    Type
REMARK                         _______ _______ _______ _____ _____    ______ ____
ROOT
ATOM      1  C   GLY A   3      41.844  -1.664  20.374  0.00  0.00    +0.243 C 
ATOM      2  N   VAL A   4      41.160  -0.962  21.252  0.00  0.00    -0.297 N 
ATOM      3  H   VAL A   4      41.276  -1.185  22.261  0.00  0.00    +0.150 HD
ATOM      4  O   GLY A   3      41.799  -1.504  19.167  0.00  0.00    -0.273 OA
ENDROOT
BRANCH   1   5
ATOM      5  CA  GLY A   3      42.749  -2.745  20.966  0.00  0.00    +0.176 C 
BRANCH   5   8
ATOM      6  C   PRO A   2      41.904  -4.667  19.847  0.00  0.00    +0.241 C 
ATOM      7  O   PRO A   2      40.932  -4.640  20.584  0.00  0.00    -0.273 OA
ATOM      8  N   GLY A   3      42.862  -3.788  19.933  0.00  0.00    -0.295 N 
ATOM      9  H   GLY A   3      43.680  -3.822  19.292  0.00  0.00    +0.150 HD
BRANCH   6  13
ATOM     10  C   LYS A   1      41.052  -7.663  19.912  0.00  0.00    +0.241 C 
ATOM     11  O   LYS A   1      41.884  -7.581  20.816  0.00  0.00    -0.273 OA
ATOM     12  N   PRO A   2      41.043  -6.855  18.873  0.00  0.00    -0.272 N 
ATOM     13  CA  PRO A   2      42.047  -5.758  18.741  0.00  0.00    +0.152 C 
ATOM     14  CB  PRO A   2      41.819  -5.215  17.328  0.00  0.00    +0.031 C 
ATOM     15  CG  PRO A   2      40.282  -5.508  17.079  0.00  0.00    +0.024 C 
ATOM     16  CD  PRO A   2      40.078  -6.890  17.732  0.00  0.00    +0.094 C 
BRANCH  10  17
ATOM     17  CA  LYS A   1      39.948  -8.760  19.928  0.00  0.00    +0.145 C 
BRANCH  17  18
ATOM     18  N   LYS A   1      40.317  -9.818  18.944  0.00  0.00    -0.238 NA
ATOM     19  H   LYS A   1      41.264 -10.243  19.005  0.00  0.00    +0.142 HD
ENDBRANCH  17  18
BRANCH  17  20
ATOM     20  CB  LYS A   1      39.850  -9.372  21.324  0.00  0.00    +0.026 C 
BRANCH  20  21
ATOM     21  CG  LYS A   1      38.717 -10.435  21.376  0.00  0.00    -0.000 C 
BRANCH  21  22
ATOM     22  CD  LYS A   1      37.320  -9.784  21.130  0.00  0.00    -0.024 C 
BRANCH  22  23
ATOM     23  CE  LYS A   1      36.271 -10.901  21.085  0.00  0.00    -0.086 C 
BRANCH  23  24
ATOM     24  NZ  LYS A   1      34.927 -10.294  20.900  0.00  0.00    +0.380 N 
ATOM     25  HZ1 LYS A   1      34.725  -9.654  21.694  0.00  0.00    -0.089 HD
ATOM     26  HZ2 LYS A   1      34.210 -11.046  20.868  0.00  0.00    -0.089 HD
ATOM     27  HZ3 LYS A   1      34.909  -9.759  20.008  0.00  0.00    -0.089 HD
ENDBRANCH  23  24
ENDBRANCH  22  23
ENDBRANCH  21  22
ENDBRANCH  20  21
ENDBRANCH  17  20
ENDBRANCH  10  17
ENDBRANCH   6  13
ENDBRANCH   5   8
ENDBRANCH   1   5
BRANCH   2  28
ATOM     28  CA  VAL A   4      40.229   0.135  20.872  0.00  0.00    +0.149 C 
BRANCH  28  29
ATOM     29  C   VAL A   4      40.880   1.383  21.469  0.00  0.00    +0.241 C 
ATOM     30  O   VAL A   4      41.343   1.414  22.600  0.00  0.00    -0.273 OA
ATOM     31  N   TYR A   5      40.869   2.385  20.654  0.00  0.00    -0.298 N 
ATOM     32  H   TYR A   5      40.412   2.256  19.729  0.00  0.00    +0.150 HD
BRANCH  31  33
ATOM     33  CA  TYR A   5      41.462   3.695  20.953  0.00  0.00    +0.141 C 
BRANCH  33  34
ATOM     34  C   TYR A   5      40.536   4.834  20.808  0.00  0.00    +0.227 C 
ATOM     35  O   TYR A   5      39.644   4.736  19.985  0.00  0.00    -0.286 OA
ENDBRANCH  33  34
BRANCH  33  36
ATOM     36  CB  TYR A   5      42.648   3.857  19.969  0.00  0.00    +0.054 C 
BRANCH  36  37
ATOM     37  CG  TYR A   5      43.608   2.712  20.146  0.00  0.00    -0.020 A 
ATOM     38  CD2 TYR A   5      44.619   2.843  21.054  0.00  0.00    -0.001 A 
ATOM     39  CE2 TYR A   5      45.476   1.802  21.287  0.00  0.00    +0.036 A 
ATOM     40  CZ  TYR A   5      45.345   0.608  20.630  0.00  0.00    +0.134 A 
ATOM     41  CE1 TYR A   5      44.334   0.461  19.700  0.00  0.00    +0.036 A 
ATOM     42  CD1 TYR A   5      43.477   1.517  19.460  0.00  0.00    -0.001 A 
BRANCH  40  43
ATOM     43  OH  TYR A   5      46.201  -0.428  20.912  0.00  0.00    -0.506 OA
ATOM     44  HH  TYR A   5      46.682  -0.691  20.087  0.00  0.00    +0.292 HD
ENDBRANCH  40  43
ENDBRANCH  36  37
ENDBRANCH  33  36
ENDBRANCH  31  33
ENDBRANCH  28  29
BRANCH  28  45
ATOM     45  CB  VAL A   4      38.820  -0.137  21.467  0.00  0.00    +0.027 C 
ATOM     46  CG2 VAL A   4      38.352  -1.561  21.025  0.00  0.00    +0.002 C 
ATOM     47  CG1 VAL A   4      37.863   0.908  20.918  0.00  0.00    +0.002 C 
ENDBRANCH  28  45
ENDBRANCH   2  28
TORSDOF 18
REMARK  Name = ../refined-set-2016/1gi4/1gi4_pocket.pdb
REMARK  145 active torsions:
REMARK  status: ('A' for Active; 'I' for Inactive)
REMARK    1  A    between atoms: _1  and  _5
REMARK    2  A    between atoms: _5  and  _6
REMARK    3  A    between atoms: _5  and  _8
REMARK    4  A    between atoms: _8  and  _9
REMARK    5  A    between atoms: _12  and  _14
REMARK    6  A    between atoms: _14  and  _15
REMARK    7  A    between atoms: _14  and  _17
REMARK    8  A    between atoms: _20  and  _22
REMARK    9  A    between atoms: _22  and  _23
REMARK   10  A    between atoms: _22  and  _25
REMARK   11  A    between atoms: _25  and  _26
REMARK   12  A    between atoms: _32  and  _34
REMARK   13  A    between atoms: _34  and  _35
REMARK   14  A    between atoms: _34  and  _37
REMARK   15  A    between atoms: _37  and  _38
REMARK   16  A    between atoms: _38  and  _62
REMARK   17  A    between atoms: _39  and  _41
REMARK   18  A    between atoms: _41  and  _42
REMARK   19  A    between atoms: _45  and  _47
REMARK   20  A    between atoms: _47  and  _48
REMARK   21  A    between atoms: _47  and  _50
REMARK   22  A    between atoms: _50  and  _51
REMARK   23  A    between atoms: _56  and  _58
REMARK   24  A    between atoms: _58  and  _59
REMARK   25  A    between atoms: _58  and  _61
REMARK   26  A    between atoms: _61  and  _62
REMARK   27  A    between atoms: _63  and  _65
REMARK   28  A    between atoms: _65  and  _66
REMARK   29  A    between atoms: _65  and  _68
REMARK   30  A    between atoms: _68  and  _69
REMARK   31  A    between atoms: _72  and  _74
REMARK   32  A    between atoms: _74  and  _75
REMARK   33  A    between atoms: _74  and  _77
REMARK   34  A    between atoms: _77  and  _78
REMARK   35  A    between atoms: _81  and  _83
REMARK   36  A    between atoms: _83  and  _84
REMARK   37  A    between atoms: _83  and  _86
REMARK   38  A    between atoms: _86  and  _87
REMARK   39  A    between atoms: _90  and  _92
REMARK   40  A    between atoms: _92  and  _93
REMARK   41  A    between atoms: _92  and  _95
REMARK   42  A    between atoms: _95  and  _96
REMARK   43  A    between atoms: _101  and  _103
REMARK   44  A    between atoms: _103  and  _104
REMARK   45  A    between atoms: _103  and  _106
REMARK   46  A    between atoms: _106  and  _107
REMARK   47  A    between atoms: _112  and  _113
REMARK   48  A    between atoms: _115  and  _117
REMARK   49  A    between atoms: _117  and  _118
REMARK   50  A    between atoms: _117  and  _120
REMARK   51  A    between atoms: _120  and  _121
REMARK   52  A    between atoms: _126  and  _127
REMARK   53  A    between atoms: _129  and  _131
REMARK   54  A    between atoms: _131  and  _132
REMARK   55  A    between atoms: _135  and  _137
REMARK   56  A    between atoms: _137  and  _138
REMARK   57  A    between atoms: _137  and  _140
REMARK   58  A    between atoms: _140  and  _141
REMARK   59  A    between atoms: _141  and  _142
REMARK   60  A    between atoms: _142  and  _143
REMARK   61  A    between atoms: _143  and  _144
REMARK   62  A    between atoms: _148  and  _150
REMARK   63  A    between atoms: _150  and  _151
REMARK   64  A    between atoms: _150  and  _153
REMARK   65  A    between atoms: _153  and  _154
REMARK   66  A    between atoms: _157  and  _159
REMARK   67  A    between atoms: _159  and  _160
REMARK   68  A    between atoms: _159  and  _162
REMARK   69  A    between atoms: _162  and  _163
REMARK   70  A    between atoms: _165  and  _167
REMARK   71  A    between atoms: _167  and  _168
REMARK   72  A    between atoms: _167  and  _170
REMARK   73  A    between atoms: _170  and  _171
REMARK   74  A    between atoms: _171  and  _281
REMARK   75  A    between atoms: _172  and  _174
REMARK   76  A    between atoms: _174  and  _175
REMARK   77  A    between atoms: _174  and  _177
REMARK   78  A    between atoms: _177  and  _178
REMARK   79  A    between atoms: _178  and  _179
REMARK   80  A    between atoms: _184  and  _186
REMARK   81  A    between atoms: _186  and  _187
REMARK   82  A    between atoms: _189  and  _191
REMARK   83  A    between atoms: _191  and  _192
REMARK   84  A    between atoms: _191  and  _194
REMARK   85  A    between atoms: _194  and  _195
REMARK   86  A    between atoms: _198  and  _200
REMARK   87  A    between atoms: _200  and  _201
REMARK   88  A    between atoms: _200  and  _203
REMARK   89  A    between atoms: _203  and  _204
REMARK   90  A    between atoms: _206  and  _208
REMARK   91  A    between atoms: _208  and  _209
REMARK   92  A    between atoms: _211  and  _213
REMARK   93  A    between atoms: _213  and  _214
REMARK   94  A    between atoms: _216  and  _218
REMARK   95  A    between atoms: _218  and  _219
REMARK   96  A    between atoms: _218  and  _221
REMARK   97  A    between atoms: _221  and  _222
REMARK   98  A    between atoms: _225  and  _227
REMARK   99  A    between atoms: _227  and  _228
REMARK  100  A    between atoms: _227  and  _230
REMARK  101  A    between atoms: _233  and  _235
REMARK  102  A    between atoms: _235  and  _236
REMARK  103  A    between atoms: _235  and  _238
REMARK  104  A    between atoms: _238  and  _239
REMARK  105  A    between atoms: _241  and  _243
REMARK  106  A    between atoms: _243  and  _244
REMARK  107  A    between atoms: _243  and  _246
REMARK  108  A    between atoms: _246  and  _247
REMARK  109  A    between atoms: _257  and  _259
REMARK  110  A    between atoms: _259  and  _260
REMARK  111  A    between atoms: _262  and  _264
REMARK  112  A    between atoms: _264  and  _265
REMARK  113  A    between atoms: _264  and  _267
REMARK  114  A    between atoms: _267  and  _268
REMARK  115  A    between atoms: _270  and  _272
REMARK  116  A    between atoms: _272  and  _273
REMARK  117  A    between atoms: _275  and  _277
REMARK  118  A    between atoms: _277  and  _278
REMARK  119  A    between atoms: _277  and  _280
REMARK  120  A    between atoms: _280  and  _281
REMARK  121  A    between atoms: _282  and  _284
REMARK  122  A    between atoms: _284  and  _285
REMARK  123  A    between atoms: _288  and  _290
REMARK  124  A    between atoms: _290  and  _291
REMARK  125  A    between atoms: _290  and  _293
REMARK  126  A    between atoms: _293  and  _294
REMARK  127  A    between atoms: _294  and  _295
REMARK  128  A    between atoms: _300  and  _302
REMARK  129  A    between atoms: _302  and  _303
REMARK  130  A    between atoms: _302  and  _305
REMARK  131  A    between atoms: _305  and  _306
REMARK  132  A    between atoms: _306  and  _307
REMARK  133  A    between atoms: _307  and  _308
REMARK  134  A    between atoms: _308  and  _309
REMARK  135  A    between atoms: _314  and  _315
REMARK  136  A    between atoms: _320  and  _322
REMARK  137  A    between atoms: _322  and  _323
REMARK  138  A    between atoms: _325  and  _327
REMARK  139  A    between atoms: _327  and  _328
REMARK  140  A    between atoms: _327  and  _330
REMARK  141  A    between atoms: _333  and  _335
REMARK  142  A    between atoms: _335  and  _336
REMARK  143  A    between atoms: _335  and  _338
REMARK  144  A    between atoms: _338  and  _339
REMARK  145  A    between atoms: _344  and  _345
REMARK                            x       y       z     vdW  Elec       q    Type
REMARK                         _______ _______ _______ _____ _____    ______ ____
ROOT
ATOM      1  O   HOH     1      44.601  -7.881  20.172  0.00  0.00    +0.000 OA
ENDROOT
TORSDOF 0
REMARK  Name = ../refined-set-2016/1gi4/1gi4_pocket.pdb
REMARK  145 active torsions:
REMARK  status: ('A' for Active; 'I' for Inactive)
REMARK    1  A    between atoms: _1  and  _5
REMARK    2  A    between atoms: _5  and  _6
REMARK    3  A    between atoms: _5  and  _8
REMARK    4  A    between atoms: _8  and  _9
REMARK    5  A    between atoms: _12  and  _14
REMARK    6  A    between atoms: _14  and  _15
REMARK    7  A    between atoms: _14  and  _17
REMARK    8  A    between atoms: _20  and  _22
REMARK    9  A    between atoms: _22  and  _23
REMARK   10  A    between atoms: _22  and  _25
REMARK   11  A    between atoms: _25  and  _26
REMARK   12  A    between atoms: _32  and  _34
REMARK   13  A    between atoms: _34  and  _35
REMARK   14  A    between atoms: _34  and  _37
REMARK   15  A    between atoms: _37  and  _38
REMARK   16  A    between atoms: _38  and  _62
REMARK   17  A    between atoms: _39  and  _41
REMARK   18  A    between atoms: _41  and  _42
REMARK   19  A    between atoms: _45  and  _47
REMARK   20  A    between atoms: _47  and  _48
REMARK   21  A    between atoms: _47  and  _50
REMARK   22  A    between atoms: _50  and  _51
REMARK   23  A    between atoms: _56  and  _58
REMARK   24  A    between atoms: _58  and  _59
REMARK   25  A    between atoms: _58  and  _61
REMARK   26  A    between atoms: _61  and  _62
REMARK   27  A    between atoms: _63  and  _65
REMARK   28  A    between atoms: _65  and  _66
REMARK   29  A    between atoms: _65  and  _68
REMARK   30  A    between atoms: _68  and  _69
REMARK   31  A    between atoms: _72  and  _74
REMARK   32  A    between atoms: _74  and  _75
REMARK   33  A    between atoms: _74  and  _77
REMARK   34  A    between atoms: _77  and  _78
REMARK   35  A    between atoms: _81  and  _83
REMARK   36  A    between atoms: _83  and  _84
REMARK   37  A    between atoms: _83  and  _86
REMARK   38  A    between atoms: _86  and  _87
REMARK   39  A    between atoms: _90  and  _92
REMARK   40  A    between atoms: _92  and  _93
REMARK   41  A    between atoms: _92  and  _95
REMARK   42  A    between atoms: _95  and  _96
REMARK   43  A    between atoms: _101  and  _103
REMARK   44  A    between atoms: _103  and  _104
REMARK   45  A    between atoms: _103  and  _106
REMARK   46  A    between atoms: _106  and  _107
REMARK   47  A    between atoms: _112  and  _113
REMARK   48  A    between atoms: _115  and  _117
REMARK   49  A    between atoms: _117  and  _118
REMARK   50  A    between atoms: _117  and  _120
REMARK   51  A    between atoms: _120  and  _121
REMARK   52  A    between atoms: _126  and  _127
REMARK   53  A    between atoms: _129  and  _131
REMARK   54  A    between atoms: _131  and  _132
REMARK   55  A    between atoms: _135  and  _137
REMARK   56  A    between atoms: _137  and  _138
REMARK   57  A    between atoms: _137  and  _140
REMARK   58  A    between atoms: _140  and  _141
REMARK   59  A    between atoms: _141  and  _142
REMARK   60  A    between atoms: _142  and  _143
REMARK   61  A    between atoms: _143  and  _144
REMARK   62  A    between atoms: _148  and  _150
REMARK   63  A    between atoms: _150  and  _151
REMARK   64  A    between atoms: _150  and  _153
REMARK   65  A    between atoms: _153  and  _154
REMARK   66  A    between atoms: _157  and  _159
REMARK   67  A    between atoms: _159  and  _160
REMARK   68  A    between atoms: _159  and  _162
REMARK   69  A    between atoms: _162  and  _163
REMARK   70  A    between atoms: _165  and  _167
REMARK   71  A    between atoms: _167  and  _168
REMARK   72  A    between atoms: _167  and  _170
REMARK   73  A    between atoms: _170  and  _171
REMARK   74  A    between atoms: _171  and  _281
REMARK   75  A    between atoms: _172  and  _174
REMARK   76  A    between atoms: _174  and  _175
REMARK   77  A    between atoms: _174  and  _177
REMARK   78  A    between atoms: _177  and  _178
REMARK   79  A    between atoms: _178  and  _179
REMARK   80  A    between atoms: _184  and  _186
REMARK   81  A    between atoms: _186  and  _187
REMARK   82  A    between atoms: _189  and  _191
REMARK   83  A    between atoms: _191  and  _192
REMARK   84  A    between atoms: _191  and  _194
REMARK   85  A    between atoms: _194  and  _195
REMARK   86  A    between atoms: _198  and  _200
REMARK   87  A    between atoms: _200  and  _201
REMARK   88  A    between atoms: _200  and  _203
REMARK   89  A    between atoms: _203  and  _204
REMARK   90  A    between atoms: _206  and  _208
REMARK   91  A    between atoms: _208  and  _209
REMARK   92  A    between atoms: _211  and  _213
REMARK   93  A    between atoms: _213  and  _214
REMARK   94  A    between atoms: _216  and  _218
REMARK   95  A    between atoms: _218  and  _219
REMARK   96  A    between atoms: _218  and  _221
REMARK   97  A    between atoms: _221  and  _222
REMARK   98  A    between atoms: _225  and  _227
REMARK   99  A    between atoms: _227  and  _228
REMARK  100  A    between atoms: _227  and  _230
REMARK  101  A    between atoms: _233  and  _235
REMARK  102  A    between atoms: _235  and  _236
REMARK  103  A    between atoms: _235  and  _238
REMARK  104  A    between atoms: _238  and  _239
REMARK  105  A    between atoms: _241  and  _243
REMARK  106  A    between atoms: _243  and  _244
REMARK  107  A    between atoms: _243  and  _246
REMARK  108  A    between atoms: _246  and  _247
REMARK  109  A    between atoms: _257  and  _259
REMARK  110  A    between atoms: _259  and  _260
REMARK  111  A    between atoms: _262  and  _264
REMARK  112  A    between atoms: _264  and  _265
REMARK  113  A    between atoms: _264  and  _267
REMARK  114  A    between atoms: _267  and  _268
REMARK  115  A    between atoms: _270  and  _272
REMARK  116  A    between atoms: _272  and  _273
REMARK  117  A    between atoms: _275  and  _277
REMARK  118  A    between atoms: _277  and  _278
REMARK  119  A    between atoms: _277  and  _280
REMARK  120  A    between atoms: _280  and  _281
REMARK  121  A    between atoms: _282  and  _284
REMARK  122  A    between atoms: _284  and  _285
REMARK  123  A    between atoms: _288  and  _290
REMARK  124  A    between atoms: _290  and  _291
REMARK  125  A    between atoms: _290  and  _293
REMARK  126  A    between atoms: _293  and  _294
REMARK  127  A    between atoms: _294  and  _295
REMARK  128  A    between atoms: _300  and  _302
REMARK  129  A    between atoms: _302  and  _303
REMARK  130  A    between atoms: _302  and  _305
REMARK  131  A    between atoms: _305  and  _306
REMARK  132  A    between atoms: _306  and  _307
REMARK  133  A    between atoms: _307  and  _308
REMARK  134  A    between atoms: _308  and  _309
REMARK  135  A    between atoms: _314  and  _315
REMARK  136  A    between atoms: _320  and  _322
REMARK  137  A    between atoms: _322  and  _323
REMARK  138  A    between atoms: _325  and  _327
REMARK  139  A    between atoms: _327  and  _328
REMARK  140  A    between atoms: _327  and  _330
REMARK  141  A    between atoms: _333  and  _335
REMARK  142  A    between atoms: _335  and  _336
REMARK  143  A    between atoms: _335  and  _338
REMARK  144  A    between atoms: _338  and  _339
REMARK  145  A    between atoms: _344  and  _345
REMARK                            x       y       z     vdW  Elec       q    Type
REMARK                         _______ _______ _______ _____ _____    ______ ____
ROOT
ATOM      1  O   HOH     1      45.915  -6.044  18.618  0.00  0.00    +0.000 OA
ENDROOT
TORSDOF 0
REMARK  Name = ../refined-set-2016/1gi4/1gi4_pocket.pdb
REMARK  145 active torsions:
REMARK  status: ('A' for Active; 'I' for Inactive)
REMARK    1  A    between atoms: _1  and  _5
REMARK    2  A    between atoms: _5  and  _6
REMARK    3  A    between atoms: _5  and  _8
REMARK    4  A    between atoms: _8  and  _9
REMARK    5  A    between atoms: _12  and  _14
REMARK    6  A    between atoms: _14  and  _15
REMARK    7  A    between atoms: _14  and  _17
REMARK    8  A    between atoms: _20  and  _22
REMARK    9  A    between atoms: _22  and  _23
REMARK   10  A    between atoms: _22  and  _25
REMARK   11  A    between atoms: _25  and  _26
REMARK   12  A    between atoms: _32  and  _34
REMARK   13  A    between atoms: _34  and  _35
REMARK   14  A    between atoms: _34  and  _37
REMARK   15  A    between atoms: _37  and  _38
REMARK   16  A    between atoms: _38  and  _62
REMARK   17  A    between atoms: _39  and  _41
REMARK   18  A    between atoms: _41  and  _42
REMARK   19  A    between atoms: _45  and  _47
REMARK   20  A    between atoms: _47  and  _48
REMARK   21  A    between atoms: _47  and  _50
REMARK   22  A    between atoms: _50  and  _51
REMARK   23  A    between atoms: _56  and  _58
REMARK   24  A    between atoms: _58  and  _59
REMARK   25  A    between atoms: _58  and  _61
REMARK   26  A    between atoms: _61  and  _62
REMARK   27  A    between atoms: _63  and  _65
REMARK   28  A    between atoms: _65  and  _66
REMARK   29  A    between atoms: _65  and  _68
REMARK   30  A    between atoms: _68  and  _69
REMARK   31  A    between atoms: _72  and  _74
REMARK   32  A    between atoms: _74  and  _75
REMARK   33  A    between atoms: _74  and  _77
REMARK   34  A    between atoms: _77  and  _78
REMARK   35  A    between atoms: _81  and  _83
REMARK   36  A    between atoms: _83  and  _84
REMARK   37  A    between atoms: _83  and  _86
REMARK   38  A    between atoms: _86  and  _87
REMARK   39  A    between atoms: _90  and  _92
REMARK   40  A    between atoms: _92  and  _93
REMARK   41  A    between atoms: _92  and  _95
REMARK   42  A    between atoms: _95  and  _96
REMARK   43  A    between atoms: _101  and  _103
REMARK   44  A    between atoms: _103  and  _104
REMARK   45  A    between atoms: _103  and  _106
REMARK   46  A    between atoms: _106  and  _107
REMARK   47  A    between atoms: _112  and  _113
REMARK   48  A    between atoms: _115  and  _117
REMARK   49  A    between atoms: _117  and  _118
REMARK   50  A    between atoms: _117  and  _120
REMARK   51  A    between atoms: _120  and  _121
REMARK   52  A    between atoms: _126  and  _127
REMARK   53  A    between atoms: _129  and  _131
REMARK   54  A    between atoms: _131  and  _132
REMARK   55  A    between atoms: _135  and  _137
REMARK   56  A    between atoms: _137  and  _138
REMARK   57  A    between atoms: _137  and  _140
REMARK   58  A    between atoms: _140  and  _141
REMARK   59  A    between atoms: _141  and  _142
REMARK   60  A    between atoms: _142  and  _143
REMARK   61  A    between atoms: _143  and  _144
REMARK   62  A    between atoms: _148  and  _150
REMARK   63  A    between atoms: _150  and  _151
REMARK   64  A    between atoms: _150  and  _153
REMARK   65  A    between atoms: _153  and  _154
REMARK   66  A    between atoms: _157  and  _159
REMARK   67  A    between atoms: _159  and  _160
REMARK   68  A    between atoms: _159  and  _162
REMARK   69  A    between atoms: _162  and  _163
REMARK   70  A    between atoms: _165  and  _167
REMARK   71  A    between atoms: _167  and  _168
REMARK   72  A    between atoms: _167  and  _170
REMARK   73  A    between atoms: _170  and  _171
REMARK   74  A    between atoms: _171  and  _281
REMARK   75  A    between atoms: _172  and  _174
REMARK   76  A    between atoms: _174  and  _175
REMARK   77  A    between atoms: _174  and  _177
REMARK   78  A    between atoms: _177  and  _178
REMARK   79  A    between atoms: _178  and  _179
REMARK   80  A    between atoms: _184  and  _186
REMARK   81  A    between atoms: _186  and  _187
REMARK   82  A    between atoms: _189  and  _191
REMARK   83  A    between atoms: _191  and  _192
REMARK   84  A    between atoms: _191  and  _194
REMARK   85  A    between atoms: _194  and  _195
REMARK   86  A    between atoms: _198  and  _200
REMARK   87  A    between atoms: _200  and  _201
REMARK   88  A    between atoms: _200  and  _203
REMARK   89  A    between atoms: _203  and  _204
REMARK   90  A    between atoms: _206  and  _208
REMARK   91  A    between atoms: _208  and  _209
REMARK   92  A    between atoms: _211  and  _213
REMARK   93  A    between atoms: _213  and  _214
REMARK   94  A    between atoms: _216  and  _218
REMARK   95  A    between atoms: _218  and  _219
REMARK   96  A    between atoms: _218  and  _221
REMARK   97  A    between atoms: _221  and  _222
REMARK   98  A    between atoms: _225  and  _227
REMARK   99  A    between atoms: _227  and  _228
REMARK  100  A    between atoms: _227  and  _230
REMARK  101  A    between atoms: _233  and  _235
REMARK  102  A    between atoms: _235  and  _236
REMARK  103  A    between atoms: _235  and  _238
REMARK  104  A    between atoms: _238  and  _239
REMARK  105  A    between atoms: _241  and  _243
REMARK  106  A    between atoms: _243  and  _244
REMARK  107  A    between atoms: _243  and  _246
REMARK  108  A    between atoms: _246  and  _247
REMARK  109  A    between atoms: _257  and  _259
REMARK  110  A    between atoms: _259  and  _260
REMARK  111  A    between atoms: _262  and  _264
REMARK  112  A    between atoms: _264  and  _265
REMARK  113  A    between atoms: _264  and  _267
REMARK  114  A    between atoms: _267  and  _268
REMARK  115  A    between atoms: _270  and  _272
REMARK  116  A    between atoms: _272  and  _273
REMARK  117  A    between atoms: _275  and  _277
REMARK  118  A    between atoms: _277  and  _278
REMARK  119  A    between atoms: _277  and  _280
REMARK  120  A    between atoms: _280  and  _281
REMARK  121  A    between atoms: _282  and  _284
REMARK  122  A    between atoms: _284  and  _285
REMARK  123  A    between atoms: _288  and  _290
REMARK  124  A    between atoms: _290  and  _291
REMARK  125  A    between atoms: _290  and  _293
REMARK  126  A    between atoms: _293  and  _294
REMARK  127  A    between atoms: _294  and  _295
REMARK  128  A    between atoms: _300  and  _302
REMARK  129  A    between atoms: _302  and  _303
REMARK  130  A    between atoms: _302  and  _305
REMARK  131  A    between atoms: _305  and  _306
REMARK  132  A    between atoms: _306  and  _307
REMARK  133  A    between atoms: _307  and  _308
REMARK  134  A    between atoms: _308  and  _309
REMARK  135  A    between atoms: _314  and  _315
REMARK  136  A    between atoms: _320  and  _322
REMARK  137  A    between atoms: _322  and  _323
REMARK  138  A    between atoms: _325  and  _327
REMARK  139  A    between atoms: _327  and  _328
REMARK  140  A    between atoms: _327  and  _330
REMARK  141  A    between atoms: _333  and  _335
REMARK  142  A    between atoms: _335  and  _336
REMARK  143  A    between atoms: _335  and  _338
REMARK  144  A    between atoms: _338  and  _339
REMARK  145  A    between atoms: _344  and  _345
REMARK                            x       y       z     vdW  Elec       q    Type
REMARK                         _______ _______ _______ _____ _____    ______ ____
ROOT
ATOM      1  O   HOH     1      46.396  -2.639  19.596  0.00  0.00    +0.000 OA
ENDROOT
TORSDOF 0
REMARK  Name = ../refined-set-2016/1gi4/1gi4_pocket.pdb
REMARK  145 active torsions:
REMARK  status: ('A' for Active; 'I' for Inactive)
REMARK    1  A    between atoms: _1  and  _5
REMARK    2  A    between atoms: _5  and  _6
REMARK    3  A    between atoms: _5  and  _8
REMARK    4  A    between atoms: _8  and  _9
REMARK    5  A    between atoms: _12  and  _14
REMARK    6  A    between atoms: _14  and  _15
REMARK    7  A    between atoms: _14  and  _17
REMARK    8  A    between atoms: _20  and  _22
REMARK    9  A    between atoms: _22  and  _23
REMARK   10  A    between atoms: _22  and  _25
REMARK   11  A    between atoms: _25  and  _26
REMARK   12  A    between atoms: _32  and  _34
REMARK   13  A    between atoms: _34  and  _35
REMARK   14  A    between atoms: _34  and  _37
REMARK   15  A    between atoms: _37  and  _38
REMARK   16  A    between atoms: _38  and  _62
REMARK   17  A    between atoms: _39  and  _41
REMARK   18  A    between atoms: _41  and  _42
REMARK   19  A    between atoms: _45  and  _47
REMARK   20  A    between atoms: _47  and  _48
REMARK   21  A    between atoms: _47  and  _50
REMARK   22  A    between atoms: _50  and  _51
REMARK   23  A    between atoms: _56  and  _58
REMARK   24  A    between atoms: _58  and  _59
REMARK   25  A    between atoms: _58  and  _61
REMARK   26  A    between atoms: _61  and  _62
REMARK   27  A    between atoms: _63  and  _65
REMARK   28  A    between atoms: _65  and  _66
REMARK   29  A    between atoms: _65  and  _68
REMARK   30  A    between atoms: _68  and  _69
REMARK   31  A    between atoms: _72  and  _74
REMARK   32  A    between atoms: _74  and  _75
REMARK   33  A    between atoms: _74  and  _77
REMARK   34  A    between atoms: _77  and  _78
REMARK   35  A    between atoms: _81  and  _83
REMARK   36  A    between atoms: _83  and  _84
REMARK   37  A    between atoms: _83  and  _86
REMARK   38  A    between atoms: _86  and  _87
REMARK   39  A    between atoms: _90  and  _92
REMARK   40  A    between atoms: _92  and  _93
REMARK   41  A    between atoms: _92  and  _95
REMARK   42  A    between atoms: _95  and  _96
REMARK   43  A    between atoms: _101  and  _103
REMARK   44  A    between atoms: _103  and  _104
REMARK   45  A    between atoms: _103  and  _106
REMARK   46  A    between atoms: _106  and  _107
REMARK   47  A    between atoms: _112  and  _113
REMARK   48  A    between atoms: _115  and  _117
REMARK   49  A    between atoms: _117  and  _118
REMARK   50  A    between atoms: _117  and  _120
REMARK   51  A    between atoms: _120  and  _121
REMARK   52  A    between atoms: _126  and  _127
REMARK   53  A    between atoms: _129  and  _131
REMARK   54  A    between atoms: _131  and  _132
REMARK   55  A    between atoms: _135  and  _137
REMARK   56  A    between atoms: _137  and  _138
REMARK   57  A    between atoms: _137  and  _140
REMARK   58  A    between atoms: _140  and  _141
REMARK   59  A    between atoms: _141  and  _142
REMARK   60  A    between atoms: _142  and  _143
REMARK   61  A    between atoms: _143  and  _144
REMARK   62  A    between atoms: _148  and  _150
REMARK   63  A    between atoms: _150  and  _151
REMARK   64  A    between atoms: _150  and  _153
REMARK   65  A    between atoms: _153  and  _154
REMARK   66  A    between atoms: _157  and  _159
REMARK   67  A    between atoms: _159  and  _160
REMARK   68  A    between atoms: _159  and  _162
REMARK   69  A    between atoms: _162  and  _163
REMARK   70  A    between atoms: _165  and  _167
REMARK   71  A    between atoms: _167  and  _168
REMARK   72  A    between atoms: _167  and  _170
REMARK   73  A    between atoms: _170  and  _171
REMARK   74  A    between atoms: _171  and  _281
REMARK   75  A    between atoms: _172  and  _174
REMARK   76  A    between atoms: _174  and  _175
REMARK   77  A    between atoms: _174  and  _177
REMARK   78  A    between atoms: _177  and  _178
REMARK   79  A    between atoms: _178  and  _179
REMARK   80  A    between atoms: _184  and  _186
REMARK   81  A    between atoms: _186  and  _187
REMARK   82  A    between atoms: _189  and  _191
REMARK   83  A    between atoms: _191  and  _192
REMARK   84  A    between atoms: _191  and  _194
REMARK   85  A    between atoms: _194  and  _195
REMARK   86  A    between atoms: _198  and  _200
REMARK   87  A    between atoms: _200  and  _201
REMARK   88  A    between atoms: _200  and  _203
REMARK   89  A    between atoms: _203  and  _204
REMARK   90  A    between atoms: _206  and  _208
REMARK   91  A    between atoms: _208  and  _209
REMARK   92  A    between atoms: _211  and  _213
REMARK   93  A    between atoms: _213  and  _214
REMARK   94  A    between atoms: _216  and  _218
REMARK   95  A    between atoms: _218  and  _219
REMARK   96  A    between atoms: _218  and  _221
REMARK   97  A    between atoms: _221  and  _222
REMARK   98  A    between atoms: _225  and  _227
REMARK   99  A    between atoms: _227  and  _228
REMARK  100  A    between atoms: _227  and  _230
REMARK  101  A    between atoms: _233  and  _235
REMARK  102  A    between atoms: _235  and  _236
REMARK  103  A    between atoms: _235  and  _238
REMARK  104  A    between atoms: _238  and  _239
REMARK  105  A    between atoms: _241  and  _243
REMARK  106  A    between atoms: _243  and  _244
REMARK  107  A    between atoms: _243  and  _246
REMARK  108  A    between atoms: _246  and  _247
REMARK  109  A    between atoms: _257  and  _259
REMARK  110  A    between atoms: _259  and  _260
REMARK  111  A    between atoms: _262  and  _264
REMARK  112  A    between atoms: _264  and  _265
REMARK  113  A    between atoms: _264  and  _267
REMARK  114  A    between atoms: _267  and  _268
REMARK  115  A    between atoms: _270  and  _272
REMARK  116  A    between atoms: _272  and  _273
REMARK  117  A    between atoms: _275  and  _277
REMARK  118  A    between atoms: _277  and  _278
REMARK  119  A    between atoms: _277  and  _280
REMARK  120  A    between atoms: _280  and  _281
REMARK  121  A    between atoms: _282  and  _284
REMARK  122  A    between atoms: _284  and  _285
REMARK  123  A    between atoms: _288  and  _290
REMARK  124  A    between atoms: _290  and  _291
REMARK  125  A    between atoms: _290  and  _293
REMARK  126  A    between atoms: _293  and  _294
REMARK  127  A    between atoms: _294  and  _295
REMARK  128  A    between atoms: _300  and  _302
REMARK  129  A    between atoms: _302  and  _303
REMARK  130  A    between atoms: _302  and  _305
REMARK  131  A    between atoms: _305  and  _306
REMARK  132  A    between atoms: _306  and  _307
REMARK  133  A    between atoms: _307  and  _308
REMARK  134  A    between atoms: _308  and  _309
REMARK  135  A    between atoms: _314  and  _315
REMARK  136  A    between atoms: _320  and  _322
REMARK  137  A    between atoms: _322  and  _323
REMARK  138  A    between atoms: _325  and  _327
REMARK  139  A    between atoms: _327  and  _328
REMARK  140  A    between atoms: _327  and  _330
REMARK  141  A    between atoms: _333  and  _335
REMARK  142  A    between atoms: _335  and  _336
REMARK  143  A    between atoms: _335  and  _338
REMARK  144  A    between atoms: _338  and  _339
REMARK  145  A    between atoms: _344  and  _345
REMARK                            x       y       z     vdW  Elec       q    Type
REMARK                         _______ _______ _______ _____ _____    ______ ____
ROOT
ATOM      1  O   HOH     1      43.746   0.044  23.408  0.00  0.00    +0.000 OA
ENDROOT
TORSDOF 0
REMARK  Name = ../refined-set-2016/1gi4/1gi4_pocket.pdb
REMARK  145 active torsions:
REMARK  status: ('A' for Active; 'I' for Inactive)
REMARK    1  A    between atoms: _1  and  _5
REMARK    2  A    between atoms: _5  and  _6
REMARK    3  A    between atoms: _5  and  _8
REMARK    4  A    between atoms: _8  and  _9
REMARK    5  A    between atoms: _12  and  _14
REMARK    6  A    between atoms: _14  and  _15
REMARK    7  A    between atoms: _14  and  _17
REMARK    8  A    between atoms: _20  and  _22
REMARK    9  A    between atoms: _22  and  _23
REMARK   10  A    between atoms: _22  and  _25
REMARK   11  A    between atoms: _25  and  _26
REMARK   12  A    between atoms: _32  and  _34
REMARK   13  A    between atoms: _34  and  _35
REMARK   14  A    between atoms: _34  and  _37
REMARK   15  A    between atoms: _37  and  _38
REMARK   16  A    between atoms: _38  and  _62
REMARK   17  A    between atoms: _39  and  _41
REMARK   18  A    between atoms: _41  and  _42
REMARK   19  A    between atoms: _45  and  _47
REMARK   20  A    between atoms: _47  and  _48
REMARK   21  A    between atoms: _47  and  _50
REMARK   22  A    between atoms: _50  and  _51
REMARK   23  A    between atoms: _56  and  _58
REMARK   24  A    between atoms: _58  and  _59
REMARK   25  A    between atoms: _58  and  _61
REMARK   26  A    between atoms: _61  and  _62
REMARK   27  A    between atoms: _63  and  _65
REMARK   28  A    between atoms: _65  and  _66
REMARK   29  A    between atoms: _65  and  _68
REMARK   30  A    between atoms: _68  and  _69
REMARK   31  A    between atoms: _72  and  _74
REMARK   32  A    between atoms: _74  and  _75
REMARK   33  A    between atoms: _74  and  _77
REMARK   34  A    between atoms: _77  and  _78
REMARK   35  A    between atoms: _81  and  _83
REMARK   36  A    between atoms: _83  and  _84
REMARK   37  A    between atoms: _83  and  _86
REMARK   38  A    between atoms: _86  and  _87
REMARK   39  A    between atoms: _90  and  _92
REMARK   40  A    between atoms: _92  and  _93
REMARK   41  A    between atoms: _92  and  _95
REMARK   42  A    between atoms: _95  and  _96
REMARK   43  A    between atoms: _101  and  _103
REMARK   44  A    between atoms: _103  and  _104
REMARK   45  A    between atoms: _103  and  _106
REMARK   46  A    between atoms: _106  and  _107
REMARK   47  A    between atoms: _112  and  _113
REMARK   48  A    between atoms: _115  and  _117
REMARK   49  A    between atoms: _117  and  _118
REMARK   50  A    between atoms: _117  and  _120
REMARK   51  A    between atoms: _120  and  _121
REMARK   52  A    between atoms: _126  and  _127
REMARK   53  A    between atoms: _129  and  _131
REMARK   54  A    between atoms: _131  and  _132
REMARK   55  A    between atoms: _135  and  _137
REMARK   56  A    between atoms: _137  and  _138
REMARK   57  A    between atoms: _137  and  _140
REMARK   58  A    between atoms: _140  and  _141
REMARK   59  A    between atoms: _141  and  _142
REMARK   60  A    between atoms: _142  and  _143
REMARK   61  A    between atoms: _143  and  _144
REMARK   62  A    between atoms: _148  and  _150
REMARK   63  A    between atoms: _150  and  _151
REMARK   64  A    between atoms: _150  and  _153
REMARK   65  A    between atoms: _153  and  _154
REMARK   66  A    between atoms: _157  and  _159
REMARK   67  A    between atoms: _159  and  _160
REMARK   68  A    between atoms: _159  and  _162
REMARK   69  A    between atoms: _162  and  _163
REMARK   70  A    between atoms: _165  and  _167
REMARK   71  A    between atoms: _167  and  _168
REMARK   72  A    between atoms: _167  and  _170
REMARK   73  A    between atoms: _170  and  _171
REMARK   74  A    between atoms: _171  and  _281
REMARK   75  A    between atoms: _172  and  _174
REMARK   76  A    between atoms: _174  and  _175
REMARK   77  A    between atoms: _174  and  _177
REMARK   78  A    between atoms: _177  and  _178
REMARK   79  A    between atoms: _178  and  _179
REMARK   80  A    between atoms: _184  and  _186
REMARK   81  A    between atoms: _186  and  _187
REMARK   82  A    between atoms: _189  and  _191
REMARK   83  A    between atoms: _191  and  _192
REMARK   84  A    between atoms: _191  and  _194
REMARK   85  A    between atoms: _194  and  _195
REMARK   86  A    between atoms: _198  and  _200
REMARK   87  A    between atoms: _200  and  _201
REMARK   88  A    between atoms: _200  and  _203
REMARK   89  A    between atoms: _203  and  _204
REMARK   90  A    between atoms: _206  and  _208
REMARK   91  A    between atoms: _208  and  _209
REMARK   92  A    between atoms: _211  and  _213
REMARK   93  A    between atoms: _213  and  _214
REMARK   94  A    between atoms: _216  and  _218
REMARK   95  A    between atoms: _218  and  _219
REMARK   96  A    between atoms: _218  and  _221
REMARK   97  A    between atoms: _221  and  _222
REMARK   98  A    between atoms: _225  and  _227
REMARK   99  A    between atoms: _227  and  _228
REMARK  100  A    between atoms: _227  and  _230
REMARK  101  A    between atoms: _233  and  _235
REMARK  102  A    between atoms: _235  and  _236
REMARK  103  A    between atoms: _235  and  _238
REMARK  104  A    between atoms: _238  and  _239
REMARK  105  A    between atoms: _241  and  _243
REMARK  106  A    between atoms: _243  and  _244
REMARK  107  A    between atoms: _243  and  _246
REMARK  108  A    between atoms: _246  and  _247
REMARK  109  A    between atoms: _257  and  _259
REMARK  110  A    between atoms: _259  and  _260
REMARK  111  A    between atoms: _262  and  _264
REMARK  112  A    between atoms: _264  and  _265
REMARK  113  A    between atoms: _264  and  _267
REMARK  114  A    between atoms: _267  and  _268
REMARK  115  A    between atoms: _270  and  _272
REMARK  116  A    between atoms: _272  and  _273
REMARK  117  A    between atoms: _275  and  _277
REMARK  118  A    between atoms: _277  and  _278
REMARK  119  A    between atoms: _277  and  _280
REMARK  120  A    between atoms: _280  and  _281
REMARK  121  A    between atoms: _282  and  _284
REMARK  122  A    between atoms: _284  and  _285
REMARK  123  A    between atoms: _288  and  _290
REMARK  124  A    between atoms: _290  and  _291
REMARK  125  A    between atoms: _290  and  _293
REMARK  126  A    between atoms: _293  and  _294
REMARK  127  A    between atoms: _294  and  _295
REMARK  128  A    between atoms: _300  and  _302
REMARK  129  A    between atoms: _302  and  _303
REMARK  130  A    between atoms: _302  and  _305
REMARK  131  A    between atoms: _305  and  _306
REMARK  132  A    between atoms: _306  and  _307
REMARK  133  A    between atoms: _307  and  _308
REMARK  134  A    between atoms: _308  and  _309
REMARK  135  A    between atoms: _314  and  _315
REMARK  136  A    between atoms: _320  and  _322
REMARK  137  A    between atoms: _322  and  _323
REMARK  138  A    between atoms: _325  and  _327
REMARK  139  A    between atoms: _327  and  _328
REMARK  140  A    between atoms: _327  and  _330
REMARK  141  A    between atoms: _333  and  _335
REMARK  142  A    between atoms: _335  and  _336
REMARK  143  A    between atoms: _335  and  _338
REMARK  144  A    between atoms: _338  and  _339
REMARK  145  A    between atoms: _344  and  _345
REMARK                            x       y       z     vdW  Elec       q    Type
REMARK                         _______ _______ _______ _____ _____    ______ ____
ROOT
ATOM      1  O   HOH     1      42.851  -8.436  23.340  0.00  0.00    +0.000 OA
ENDROOT
TORSDOF 0
REMARK  Name = ../refined-set-2016/1gi4/1gi4_pocket.pdb
REMARK  145 active torsions:
REMARK  status: ('A' for Active; 'I' for Inactive)
REMARK    1  A    between atoms: _1  and  _5
REMARK    2  A    between atoms: _5  and  _6
REMARK    3  A    between atoms: _5  and  _8
REMARK    4  A    between atoms: _8  and  _9
REMARK    5  A    between atoms: _12  and  _14
REMARK    6  A    between atoms: _14  and  _15
REMARK    7  A    between atoms: _14  and  _17
REMARK    8  A    between atoms: _20  and  _22
REMARK    9  A    between atoms: _22  and  _23
REMARK   10  A    between atoms: _22  and  _25
REMARK   11  A    between atoms: _25  and  _26
REMARK   12  A    between atoms: _32  and  _34
REMARK   13  A    between atoms: _34  and  _35
REMARK   14  A    between atoms: _34  and  _37
REMARK   15  A    between atoms: _37  and  _38
REMARK   16  A    between atoms: _38  and  _62
REMARK   17  A    between atoms: _39  and  _41
REMARK   18  A    between atoms: _41  and  _42
REMARK   19  A    between atoms: _45  and  _47
REMARK   20  A    between atoms: _47  and  _48
REMARK   21  A    between atoms: _47  and  _50
REMARK   22  A    between atoms: _50  and  _51
REMARK   23  A    between atoms: _56  and  _58
REMARK   24  A    between atoms: _58  and  _59
REMARK   25  A    between atoms: _58  and  _61
REMARK   26  A    between atoms: _61  and  _62
REMARK   27  A    between atoms: _63  and  _65
REMARK   28  A    between atoms: _65  and  _66
REMARK   29  A    between atoms: _65  and  _68
REMARK   30  A    between atoms: _68  and  _69
REMARK   31  A    between atoms: _72  and  _74
REMARK   32  A    between atoms: _74  and  _75
REMARK   33  A    between atoms: _74  and  _77
REMARK   34  A    between atoms: _77  and  _78
REMARK   35  A    between atoms: _81  and  _83
REMARK   36  A    between atoms: _83  and  _84
REMARK   37  A    between atoms: _83  and  _86
REMARK   38  A    between atoms: _86  and  _87
REMARK   39  A    between atoms: _90  and  _92
REMARK   40  A    between atoms: _92  and  _93
REMARK   41  A    between atoms: _92  and  _95
REMARK   42  A    between atoms: _95  and  _96
REMARK   43  A    between atoms: _101  and  _103
REMARK   44  A    between atoms: _103  and  _104
REMARK   45  A    between atoms: _103  and  _106
REMARK   46  A    between atoms: _106  and  _107
REMARK   47  A    between atoms: _112  and  _113
REMARK   48  A    between atoms: _115  and  _117
REMARK   49  A    between atoms: _117  and  _118
REMARK   50  A    between atoms: _117  and  _120
REMARK   51  A    between atoms: _120  and  _121
REMARK   52  A    between atoms: _126  and  _127
REMARK   53  A    between atoms: _129  and  _131
REMARK   54  A    between atoms: _131  and  _132
REMARK   55  A    between atoms: _135  and  _137
REMARK   56  A    between atoms: _137  and  _138
REMARK   57  A    between atoms: _137  and  _140
REMARK   58  A    between atoms: _140  and  _141
REMARK   59  A    between atoms: _141  and  _142
REMARK   60  A    between atoms: _142  and  _143
REMARK   61  A    between atoms: _143  and  _144
REMARK   62  A    between atoms: _148  and  _150
REMARK   63  A    between atoms: _150  and  _151
REMARK   64  A    between atoms: _150  and  _153
REMARK   65  A    between atoms: _153  and  _154
REMARK   66  A    between atoms: _157  and  _159
REMARK   67  A    between atoms: _159  and  _160
REMARK   68  A    between atoms: _159  and  _162
REMARK   69  A    between atoms: _162  and  _163
REMARK   70  A    between atoms: _165  and  _167
REMARK   71  A    between atoms: _167  and  _168
REMARK   72  A    between atoms: _167  and  _170
REMARK   73  A    between atoms: _170  and  _171
REMARK   74  A    between atoms: _171  and  _281
REMARK   75  A    between atoms: _172  and  _174
REMARK   76  A    between atoms: _174  and  _175
REMARK   77  A    between atoms: _174  and  _177
REMARK   78  A    between atoms: _177  and  _178
REMARK   79  A    between atoms: _178  and  _179
REMARK   80  A    between atoms: _184  and  _186
REMARK   81  A    between atoms: _186  and  _187
REMARK   82  A    between atoms: _189  and  _191
REMARK   83  A    between atoms: _191  and  _192
REMARK   84  A    between atoms: _191  and  _194
REMARK   85  A    between atoms: _194  and  _195
REMARK   86  A    between atoms: _198  and  _200
REMARK   87  A    between atoms: _200  and  _201
REMARK   88  A    between atoms: _200  and  _203
REMARK   89  A    between atoms: _203  and  _204
REMARK   90  A    between atoms: _206  and  _208
REMARK   91  A    between atoms: _208  and  _209
REMARK   92  A    between atoms: _211  and  _213
REMARK   93  A    between atoms: _213  and  _214
REMARK   94  A    between atoms: _216  and  _218
REMARK   95  A    between atoms: _218  and  _219
REMARK   96  A    between atoms: _218  and  _221
REMARK   97  A    between atoms: _221  and  _222
REMARK   98  A    between atoms: _225  and  _227
REMARK   99  A    between atoms: _227  and  _228
REMARK  100  A    between atoms: _227  and  _230
REMARK  101  A    between atoms: _233  and  _235
REMARK  102  A    between atoms: _235  and  _236
REMARK  103  A    between atoms: _235  and  _238
REMARK  104  A    between atoms: _238  and  _239
REMARK  105  A    between atoms: _241  and  _243
REMARK  106  A    between atoms: _243  and  _244
REMARK  107  A    between atoms: _243  and  _246
REMARK  108  A    between atoms: _246  and  _247
REMARK  109  A    between atoms: _257  and  _259
REMARK  110  A    between atoms: _259  and  _260
REMARK  111  A    between atoms: _262  and  _264
REMARK  112  A    between atoms: _264  and  _265
REMARK  113  A    between atoms: _264  and  _267
REMARK  114  A    between atoms: _267  and  _268
REMARK  115  A    between atoms: _270  and  _272
REMARK  116  A    between atoms: _272  and  _273
REMARK  117  A    between atoms: _275  and  _277
REMARK  118  A    between atoms: _277  and  _278
REMARK  119  A    between atoms: _277  and  _280
REMARK  120  A    between atoms: _280  and  _281
REMARK  121  A    between atoms: _282  and  _284
REMARK  122  A    between atoms: _284  and  _285
REMARK  123  A    between atoms: _288  and  _290
REMARK  124  A    between atoms: _290  and  _291
REMARK  125  A    between atoms: _290  and  _293
REMARK  126  A    between atoms: _293  and  _294
REMARK  127  A    between atoms: _294  and  _295
REMARK  128  A    between atoms: _300  and  _302
REMARK  129  A    between atoms: _302  and  _303
REMARK  130  A    between atoms: _302  and  _305
REMARK  131  A    between atoms: _305  and  _306
REMARK  132  A    between atoms: _306  and  _307
REMARK  133  A    between atoms: _307  and  _308
REMARK  134  A    between atoms: _308  and  _309
REMARK  135  A    between atoms: _314  and  _315
REMARK  136  A    between atoms: _320  and  _322
REMARK  137  A    between atoms: _322  and  _323
REMARK  138  A    between atoms: _325  and  _327
REMARK  139  A    between atoms: _327  and  _328
REMARK  140  A    between atoms: _327  and  _330
REMARK  141  A    between atoms: _333  and  _335
REMARK  142  A    between atoms: _335  and  _336
REMARK  143  A    between atoms: _335  and  _338
REMARK  144  A    between atoms: _338  and  _339
REMARK  145  A    between atoms: _344  and  _345
REMARK                            x       y       z     vdW  Elec       q    Type
REMARK                         _______ _______ _______ _____ _____    ______ ____
ROOT
ATOM      1  O   HOH     1      41.964  -5.342  30.455  0.00  0.00    +0.000 OA
ENDROOT
TORSDOF 0
REMARK  Name = ../refined-set-2016/1gi4/1gi4_pocket.pdb
REMARK  145 active torsions:
REMARK  status: ('A' for Active; 'I' for Inactive)
REMARK    1  A    between atoms: _1  and  _5
REMARK    2  A    between atoms: _5  and  _6
REMARK    3  A    between atoms: _5  and  _8
REMARK    4  A    between atoms: _8  and  _9
REMARK    5  A    between atoms: _12  and  _14
REMARK    6  A    between atoms: _14  and  _15
REMARK    7  A    between atoms: _14  and  _17
REMARK    8  A    between atoms: _20  and  _22
REMARK    9  A    between atoms: _22  and  _23
REMARK   10  A    between atoms: _22  and  _25
REMARK   11  A    between atoms: _25  and  _26
REMARK   12  A    between atoms: _32  and  _34
REMARK   13  A    between atoms: _34  and  _35
REMARK   14  A    between atoms: _34  and  _37
REMARK   15  A    between atoms: _37  and  _38
REMARK   16  A    between atoms: _38  and  _62
REMARK   17  A    between atoms: _39  and  _41
REMARK   18  A    between atoms: _41  and  _42
REMARK   19  A    between atoms: _45  and  _47
REMARK   20  A    between atoms: _47  and  _48
REMARK   21  A    between atoms: _47  and  _50
REMARK   22  A    between atoms: _50  and  _51
REMARK   23  A    between atoms: _56  and  _58
REMARK   24  A    between atoms: _58  and  _59
REMARK   25  A    between atoms: _58  and  _61
REMARK   26  A    between atoms: _61  and  _62
REMARK   27  A    between atoms: _63  and  _65
REMARK   28  A    between atoms: _65  and  _66
REMARK   29  A    between atoms: _65  and  _68
REMARK   30  A    between atoms: _68  and  _69
REMARK   31  A    between atoms: _72  and  _74
REMARK   32  A    between atoms: _74  and  _75
REMARK   33  A    between atoms: _74  and  _77
REMARK   34  A    between atoms: _77  and  _78
REMARK   35  A    between atoms: _81  and  _83
REMARK   36  A    between atoms: _83  and  _84
REMARK   37  A    between atoms: _83  and  _86
REMARK   38  A    between atoms: _86  and  _87
REMARK   39  A    between atoms: _90  and  _92
REMARK   40  A    between atoms: _92  and  _93
REMARK   41  A    between atoms: _92  and  _95
REMARK   42  A    between atoms: _95  and  _96
REMARK   43  A    between atoms: _101  and  _103
REMARK   44  A    between atoms: _103  and  _104
REMARK   45  A    between atoms: _103  and  _106
REMARK   46  A    between atoms: _106  and  _107
REMARK   47  A    between atoms: _112  and  _113
REMARK   48  A    between atoms: _115  and  _117
REMARK   49  A    between atoms: _117  and  _118
REMARK   50  A    between atoms: _117  and  _120
REMARK   51  A    between atoms: _120  and  _121
REMARK   52  A    between atoms: _126  and  _127
REMARK   53  A    between atoms: _129  and  _131
REMARK   54  A    between atoms: _131  and  _132
REMARK   55  A    between atoms: _135  and  _137
REMARK   56  A    between atoms: _137  and  _138
REMARK   57  A    between atoms: _137  and  _140
REMARK   58  A    between atoms: _140  and  _141
REMARK   59  A    between atoms: _141  and  _142
REMARK   60  A    between atoms: _142  and  _143
REMARK   61  A    between atoms: _143  and  _144
REMARK   62  A    between atoms: _148  and  _150
REMARK   63  A    between atoms: _150  and  _151
REMARK   64  A    between atoms: _150  and  _153
REMARK   65  A    between atoms: _153  and  _154
REMARK   66  A    between atoms: _157  and  _159
REMARK   67  A    between atoms: _159  and  _160
REMARK   68  A    between atoms: _159  and  _162
REMARK   69  A    between atoms: _162  and  _163
REMARK   70  A    between atoms: _165  and  _167
REMARK   71  A    between atoms: _167  and  _168
REMARK   72  A    between atoms: _167  and  _170
REMARK   73  A    between atoms: _170  and  _171
REMARK   74  A    between atoms: _171  and  _281
REMARK   75  A    between atoms: _172  and  _174
REMARK   76  A    between atoms: _174  and  _175
REMARK   77  A    between atoms: _174  and  _177
REMARK   78  A    between atoms: _177  and  _178
REMARK   79  A    between atoms: _178  and  _179
REMARK   80  A    between atoms: _184  and  _186
REMARK   81  A    between atoms: _186  and  _187
REMARK   82  A    between atoms: _189  and  _191
REMARK   83  A    between atoms: _191  and  _192
REMARK   84  A    between atoms: _191  and  _194
REMARK   85  A    between atoms: _194  and  _195
REMARK   86  A    between atoms: _198  and  _200
REMARK   87  A    between atoms: _200  and  _201
REMARK   88  A    between atoms: _200  and  _203
REMARK   89  A    between atoms: _203  and  _204
REMARK   90  A    between atoms: _206  and  _208
REMARK   91  A    between atoms: _208  and  _209
REMARK   92  A    between atoms: _211  and  _213
REMARK   93  A    between atoms: _213  and  _214
REMARK   94  A    between atoms: _216  and  _218
REMARK   95  A    between atoms: _218  and  _219
REMARK   96  A    between atoms: _218  and  _221
REMARK   97  A    between atoms: _221  and  _222
REMARK   98  A    between atoms: _225  and  _227
REMARK   99  A    between atoms: _227  and  _228
REMARK  100  A    between atoms: _227  and  _230
REMARK  101  A    between atoms: _233  and  _235
REMARK  102  A    between atoms: _235  and  _236
REMARK  103  A    between atoms: _235  and  _238
REMARK  104  A    between atoms: _238  and  _239
REMARK  105  A    between atoms: _241  and  _243
REMARK  106  A    between atoms: _243  and  _244
REMARK  107  A    between atoms: _243  and  _246
REMARK  108  A    between atoms: _246  and  _247
REMARK  109  A    between atoms: _257  and  _259
REMARK  110  A    between atoms: _259  and  _260
REMARK  111  A    between atoms: _262  and  _264
REMARK  112  A    between atoms: _264  and  _265
REMARK  113  A    between atoms: _264  and  _267
REMARK  114  A    between atoms: _267  and  _268
REMARK  115  A    between atoms: _270  and  _272
REMARK  116  A    between atoms: _272  and  _273
REMARK  117  A    between atoms: _275  and  _277
REMARK  118  A    between atoms: _277  and  _278
REMARK  119  A    between atoms: _277  and  _280
REMARK  120  A    between atoms: _280  and  _281
REMARK  121  A    between atoms: _282  and  _284
REMARK  122  A    between atoms: _284  and  _285
REMARK  123  A    between atoms: _288  and  _290
REMARK  124  A    between atoms: _290  and  _291
REMARK  125  A    between atoms: _290  and  _293
REMARK  126  A    between atoms: _293  and  _294
REMARK  127  A    between atoms: _294  and  _295
REMARK  128  A    between atoms: _300  and  _302
REMARK  129  A    between atoms: _302  and  _303
REMARK  130  A    between atoms: _302  and  _305
REMARK  131  A    between atoms: _305  and  _306
REMARK  132  A    between atoms: _306  and  _307
REMARK  133  A    between atoms: _307  and  _308
REMARK  134  A    between atoms: _308  and  _309
REMARK  135  A    between atoms: _314  and  _315
REMARK  136  A    between atoms: _320  and  _322
REMARK  137  A    between atoms: _322  and  _323
REMARK  138  A    between atoms: _325  and  _327
REMARK  139  A    between atoms: _327  and  _328
REMARK  140  A    between atoms: _327  and  _330
REMARK  141  A    between atoms: _333  and  _335
REMARK  142  A    between atoms: _335  and  _336
REMARK  143  A    between atoms: _335  and  _338
REMARK  144  A    between atoms: _338  and  _339
REMARK  145  A    between atoms: _344  and  _345
REMARK                            x       y       z     vdW  Elec       q    Type
REMARK                         _______ _______ _______ _____ _____    ______ ____
ROOT
ATOM      1  O   HOH     1      46.430   0.578  38.462  0.00  0.00    +0.000 OA
ENDROOT
TORSDOF 0
REMARK  Name = ../refined-set-2016/1gi4/1gi4_pocket.pdb
REMARK  145 active torsions:
REMARK  status: ('A' for Active; 'I' for Inactive)
REMARK    1  A    between atoms: _1  and  _5
REMARK    2  A    between atoms: _5  and  _6
REMARK    3  A    between atoms: _5  and  _8
REMARK    4  A    between atoms: _8  and  _9
REMARK    5  A    between atoms: _12  and  _14
REMARK    6  A    between atoms: _14  and  _15
REMARK    7  A    between atoms: _14  and  _17
REMARK    8  A    between atoms: _20  and  _22
REMARK    9  A    between atoms: _22  and  _23
REMARK   10  A    between atoms: _22  and  _25
REMARK   11  A    between atoms: _25  and  _26
REMARK   12  A    between atoms: _32  and  _34
REMARK   13  A    between atoms: _34  and  _35
REMARK   14  A    between atoms: _34  and  _37
REMARK   15  A    between atoms: _37  and  _38
REMARK   16  A    between atoms: _38  and  _62
REMARK   17  A    between atoms: _39  and  _41
REMARK   18  A    between atoms: _41  and  _42
REMARK   19  A    between atoms: _45  and  _47
REMARK   20  A    between atoms: _47  and  _48
REMARK   21  A    between atoms: _47  and  _50
REMARK   22  A    between atoms: _50  and  _51
REMARK   23  A    between atoms: _56  and  _58
REMARK   24  A    between atoms: _58  and  _59
REMARK   25  A    between atoms: _58  and  _61
REMARK   26  A    between atoms: _61  and  _62
REMARK   27  A    between atoms: _63  and  _65
REMARK   28  A    between atoms: _65  and  _66
REMARK   29  A    between atoms: _65  and  _68
REMARK   30  A    between atoms: _68  and  _69
REMARK   31  A    between atoms: _72  and  _74
REMARK   32  A    between atoms: _74  and  _75
REMARK   33  A    between atoms: _74  and  _77
REMARK   34  A    between atoms: _77  and  _78
REMARK   35  A    between atoms: _81  and  _83
REMARK   36  A    between atoms: _83  and  _84
REMARK   37  A    between atoms: _83  and  _86
REMARK   38  A    between atoms: _86  and  _87
REMARK   39  A    between atoms: _90  and  _92
REMARK   40  A    between atoms: _92  and  _93
REMARK   41  A    between atoms: _92  and  _95
REMARK   42  A    between atoms: _95  and  _96
REMARK   43  A    between atoms: _101  and  _103
REMARK   44  A    between atoms: _103  and  _104
REMARK   45  A    between atoms: _103  and  _106
REMARK   46  A    between atoms: _106  and  _107
REMARK   47  A    between atoms: _112  and  _113
REMARK   48  A    between atoms: _115  and  _117
REMARK   49  A    between atoms: _117  and  _118
REMARK   50  A    between atoms: _117  and  _120
REMARK   51  A    between atoms: _120  and  _121
REMARK   52  A    between atoms: _126  and  _127
REMARK   53  A    between atoms: _129  and  _131
REMARK   54  A    between atoms: _131  and  _132
REMARK   55  A    between atoms: _135  and  _137
REMARK   56  A    between atoms: _137  and  _138
REMARK   57  A    between atoms: _137  and  _140
REMARK   58  A    between atoms: _140  and  _141
REMARK   59  A    between atoms: _141  and  _142
REMARK   60  A    between atoms: _142  and  _143
REMARK   61  A    between atoms: _143  and  _144
REMARK   62  A    between atoms: _148  and  _150
REMARK   63  A    between atoms: _150  and  _151
REMARK   64  A    between atoms: _150  and  _153
REMARK   65  A    between atoms: _153  and  _154
REMARK   66  A    between atoms: _157  and  _159
REMARK   67  A    between atoms: _159  and  _160
REMARK   68  A    between atoms: _159  and  _162
REMARK   69  A    between atoms: _162  and  _163
REMARK   70  A    between atoms: _165  and  _167
REMARK   71  A    between atoms: _167  and  _168
REMARK   72  A    between atoms: _167  and  _170
REMARK   73  A    between atoms: _170  and  _171
REMARK   74  A    between atoms: _171  and  _281
REMARK   75  A    between atoms: _172  and  _174
REMARK   76  A    between atoms: _174  and  _175
REMARK   77  A    between atoms: _174  and  _177
REMARK   78  A    between atoms: _177  and  _178
REMARK   79  A    between atoms: _178  and  _179
REMARK   80  A    between atoms: _184  and  _186
REMARK   81  A    between atoms: _186  and  _187
REMARK   82  A    between atoms: _189  and  _191
REMARK   83  A    between atoms: _191  and  _192
REMARK   84  A    between atoms: _191  and  _194
REMARK   85  A    between atoms: _194  and  _195
REMARK   86  A    between atoms: _198  and  _200
REMARK   87  A    between atoms: _200  and  _201
REMARK   88  A    between atoms: _200  and  _203
REMARK   89  A    between atoms: _203  and  _204
REMARK   90  A    between atoms: _206  and  _208
REMARK   91  A    between atoms: _208  and  _209
REMARK   92  A    between atoms: _211  and  _213
REMARK   93  A    between atoms: _213  and  _214
REMARK   94  A    between atoms: _216  and  _218
REMARK   95  A    between atoms: _218  and  _219
REMARK   96  A    between atoms: _218  and  _221
REMARK   97  A    between atoms: _221  and  _222
REMARK   98  A    between atoms: _225  and  _227
REMARK   99  A    between atoms: _227  and  _228
REMARK  100  A    between atoms: _227  and  _230
REMARK  101  A    between atoms: _233  and  _235
REMARK  102  A    between atoms: _235  and  _236
REMARK  103  A    between atoms: _235  and  _238
REMARK  104  A    between atoms: _238  and  _239
REMARK  105  A    between atoms: _241  and  _243
REMARK  106  A    between atoms: _243  and  _244
REMARK  107  A    between atoms: _243  and  _246
REMARK  108  A    between atoms: _246  and  _247
REMARK  109  A    between atoms: _257  and  _259
REMARK  110  A    between atoms: _259  and  _260
REMARK  111  A    between atoms: _262  and  _264
REMARK  112  A    between atoms: _264  and  _265
REMARK  113  A    between atoms: _264  and  _267
REMARK  114  A    between atoms: _267  and  _268
REMARK  115  A    between atoms: _270  and  _272
REMARK  116  A    between atoms: _272  and  _273
REMARK  117  A    between atoms: _275  and  _277
REMARK  118  A    between atoms: _277  and  _278
REMARK  119  A    between atoms: _277  and  _280
REMARK  120  A    between atoms: _280  and  _281
REMARK  121  A    between atoms: _282  and  _284
REMARK  122  A    between atoms: _284  and  _285
REMARK  123  A    between atoms: _288  and  _290
REMARK  124  A    between atoms: _290  and  _291
REMARK  125  A    between atoms: _290  and  _293
REMARK  126  A    between atoms: _293  and  _294
REMARK  127  A    between atoms: _294  and  _295
REMARK  128  A    between atoms: _300  and  _302
REMARK  129  A    between atoms: _302  and  _303
REMARK  130  A    between atoms: _302  and  _305
REMARK  131  A    between atoms: _305  and  _306
REMARK  132  A    between atoms: _306  and  _307
REMARK  133  A    between atoms: _307  and  _308
REMARK  134  A    between atoms: _308  and  _309
REMARK  135  A    between atoms: _314  and  _315
REMARK  136  A    between atoms: _320  and  _322
REMARK  137  A    between atoms: _322  and  _323
REMARK  138  A    between atoms: _325  and  _327
REMARK  139  A    between atoms: _327  and  _328
REMARK  140  A    between atoms: _327  and  _330
REMARK  141  A    between atoms: _333  and  _335
REMARK  142  A    between atoms: _335  and  _336
REMARK  143  A    between atoms: _335  and  _338
REMARK  144  A    between atoms: _338  and  _339
REMARK  145  A    between atoms: _344  and  _345
REMARK                            x       y       z     vdW  Elec       q    Type
REMARK                         _______ _______ _______ _____ _____    ______ ____
ROOT
ATOM      1  O   HOH     1      43.625   5.166  37.912  0.00  0.00    +0.000 OA
ENDROOT
TORSDOF 0
REMARK  Name = ../refined-set-2016/1gi4/1gi4_pocket.pdb
REMARK  145 active torsions:
REMARK  status: ('A' for Active; 'I' for Inactive)
REMARK    1  A    between atoms: _1  and  _5
REMARK    2  A    between atoms: _5  and  _6
REMARK    3  A    between atoms: _5  and  _8
REMARK    4  A    between atoms: _8  and  _9
REMARK    5  A    between atoms: _12  and  _14
REMARK    6  A    between atoms: _14  and  _15
REMARK    7  A    between atoms: _14  and  _17
REMARK    8  A    between atoms: _20  and  _22
REMARK    9  A    between atoms: _22  and  _23
REMARK   10  A    between atoms: _22  and  _25
REMARK   11  A    between atoms: _25  and  _26
REMARK   12  A    between atoms: _32  and  _34
REMARK   13  A    between atoms: _34  and  _35
REMARK   14  A    between atoms: _34  and  _37
REMARK   15  A    between atoms: _37  and  _38
REMARK   16  A    between atoms: _38  and  _62
REMARK   17  A    between atoms: _39  and  _41
REMARK   18  A    between atoms: _41  and  _42
REMARK   19  A    between atoms: _45  and  _47
REMARK   20  A    between atoms: _47  and  _48
REMARK   21  A    between atoms: _47  and  _50
REMARK   22  A    between atoms: _50  and  _51
REMARK   23  A    between atoms: _56  and  _58
REMARK   24  A    between atoms: _58  and  _59
REMARK   25  A    between atoms: _58  and  _61
REMARK   26  A    between atoms: _61  and  _62
REMARK   27  A    between atoms: _63  and  _65
REMARK   28  A    between atoms: _65  and  _66
REMARK   29  A    between atoms: _65  and  _68
REMARK   30  A    between atoms: _68  and  _69
REMARK   31  A    between atoms: _72  and  _74
REMARK   32  A    between atoms: _74  and  _75
REMARK   33  A    between atoms: _74  and  _77
REMARK   34  A    between atoms: _77  and  _78
REMARK   35  A    between atoms: _81  and  _83
REMARK   36  A    between atoms: _83  and  _84
REMARK   37  A    between atoms: _83  and  _86
REMARK   38  A    between atoms: _86  and  _87
REMARK   39  A    between atoms: _90  and  _92
REMARK   40  A    between atoms: _92  and  _93
REMARK   41  A    between atoms: _92  and  _95
REMARK   42  A    between atoms: _95  and  _96
REMARK   43  A    between atoms: _101  and  _103
REMARK   44  A    between atoms: _103  and  _104
REMARK   45  A    between atoms: _103  and  _106
REMARK   46  A    between atoms: _106  and  _107
REMARK   47  A    between atoms: _112  and  _113
REMARK   48  A    between atoms: _115  and  _117
REMARK   49  A    between atoms: _117  and  _118
REMARK   50  A    between atoms: _117  and  _120
REMARK   51  A    between atoms: _120  and  _121
REMARK   52  A    between atoms: _126  and  _127
REMARK   53  A    between atoms: _129  and  _131
REMARK   54  A    between atoms: _131  and  _132
REMARK   55  A    between atoms: _135  and  _137
REMARK   56  A    between atoms: _137  and  _138
REMARK   57  A    between atoms: _137  and  _140
REMARK   58  A    between atoms: _140  and  _141
REMARK   59  A    between atoms: _141  and  _142
REMARK   60  A    between atoms: _142  and  _143
REMARK   61  A    between atoms: _143  and  _144
REMARK   62  A    between atoms: _148  and  _150
REMARK   63  A    between atoms: _150  and  _151
REMARK   64  A    between atoms: _150  and  _153
REMARK   65  A    between atoms: _153  and  _154
REMARK   66  A    between atoms: _157  and  _159
REMARK   67  A    between atoms: _159  and  _160
REMARK   68  A    between atoms: _159  and  _162
REMARK   69  A    between atoms: _162  and  _163
REMARK   70  A    between atoms: _165  and  _167
REMARK   71  A    between atoms: _167  and  _168
REMARK   72  A    between atoms: _167  and  _170
REMARK   73  A    between atoms: _170  and  _171
REMARK   74  A    between atoms: _171  and  _281
REMARK   75  A    between atoms: _172  and  _174
REMARK   76  A    between atoms: _174  and  _175
REMARK   77  A    between atoms: _174  and  _177
REMARK   78  A    between atoms: _177  and  _178
REMARK   79  A    between atoms: _178  and  _179
REMARK   80  A    between atoms: _184  and  _186
REMARK   81  A    between atoms: _186  and  _187
REMARK   82  A    between atoms: _189  and  _191
REMARK   83  A    between atoms: _191  and  _192
REMARK   84  A    between atoms: _191  and  _194
REMARK   85  A    between atoms: _194  and  _195
REMARK   86  A    between atoms: _198  and  _200
REMARK   87  A    between atoms: _200  and  _201
REMARK   88  A    between atoms: _200  and  _203
REMARK   89  A    between atoms: _203  and  _204
REMARK   90  A    between atoms: _206  and  _208
REMARK   91  A    between atoms: _208  and  _209
REMARK   92  A    between atoms: _211  and  _213
REMARK   93  A    between atoms: _213  and  _214
REMARK   94  A    between atoms: _216  and  _218
REMARK   95  A    between atoms: _218  and  _219
REMARK   96  A    between atoms: _218  and  _221
REMARK   97  A    between atoms: _221  and  _222
REMARK   98  A    between atoms: _225  and  _227
REMARK   99  A    between atoms: _227  and  _228
REMARK  100  A    between atoms: _227  and  _230
REMARK  101  A    between atoms: _233  and  _235
REMARK  102  A    between atoms: _235  and  _236
REMARK  103  A    between atoms: _235  and  _238
REMARK  104  A    between atoms: _238  and  _239
REMARK  105  A    between atoms: _241  and  _243
REMARK  106  A    between atoms: _243  and  _244
REMARK  107  A    between atoms: _243  and  _246
REMARK  108  A    between atoms: _246  and  _247
REMARK  109  A    between atoms: _257  and  _259
REMARK  110  A    between atoms: _259  and  _260
REMARK  111  A    between atoms: _262  and  _264
REMARK  112  A    between atoms: _264  and  _265
REMARK  113  A    between atoms: _264  and  _267
REMARK  114  A    between atoms: _267  and  _268
REMARK  115  A    between atoms: _270  and  _272
REMARK  116  A    between atoms: _272  and  _273
REMARK  117  A    between atoms: _275  and  _277
REMARK  118  A    between atoms: _277  and  _278
REMARK  119  A    between atoms: _277  and  _280
REMARK  120  A    between atoms: _280  and  _281
REMARK  121  A    between atoms: _282  and  _284
REMARK  122  A    between atoms: _284  and  _285
REMARK  123  A    between atoms: _288  and  _290
REMARK  124  A    between atoms: _290  and  _291
REMARK  125  A    between atoms: _290  and  _293
REMARK  126  A    between atoms: _293  and  _294
REMARK  127  A    between atoms: _294  and  _295
REMARK  128  A    between atoms: _300  and  _302
REMARK  129  A    between atoms: _302  and  _303
REMARK  130  A    between atoms: _302  and  _305
REMARK  131  A    between atoms: _305  and  _306
REMARK  132  A    between atoms: _306  and  _307
REMARK  133  A    between atoms: _307  and  _308
REMARK  134  A    between atoms: _308  and  _309
REMARK  135  A    between atoms: _314  and  _315
REMARK  136  A    between atoms: _320  and  _322
REMARK  137  A    between atoms: _322  and  _323
REMARK  138  A    between atoms: _325  and  _327
REMARK  139  A    between atoms: _327  and  _328
REMARK  140  A    between atoms: _327  and  _330
REMARK  141  A    between atoms: _333  and  _335
REMARK  142  A    between atoms: _335  and  _336
REMARK  143  A    between atoms: _335  and  _338
REMARK  144  A    between atoms: _338  and  _339
REMARK  145  A    between atoms: _344  and  _345
REMARK                            x       y       z     vdW  Elec       q    Type
REMARK                         _______ _______ _______ _____ _____    ______ ____
ROOT
ATOM      1  O   HOH     1      44.385 -11.288  28.206  0.00  0.00    +0.000 OA
ENDROOT
TORSDOF 0
REMARK  Name = ../refined-set-2016/1gi4/1gi4_pocket.pdb
REMARK  145 active torsions:
REMARK  status: ('A' for Active; 'I' for Inactive)
REMARK    1  A    between atoms: _1  and  _5
REMARK    2  A    between atoms: _5  and  _6
REMARK    3  A    between atoms: _5  and  _8
REMARK    4  A    between atoms: _8  and  _9
REMARK    5  A    between atoms: _12  and  _14
REMARK    6  A    between atoms: _14  and  _15
REMARK    7  A    between atoms: _14  and  _17
REMARK    8  A    between atoms: _20  and  _22
REMARK    9  A    between atoms: _22  and  _23
REMARK   10  A    between atoms: _22  and  _25
REMARK   11  A    between atoms: _25  and  _26
REMARK   12  A    between atoms: _32  and  _34
REMARK   13  A    between atoms: _34  and  _35
REMARK   14  A    between atoms: _34  and  _37
REMARK   15  A    between atoms: _37  and  _38
REMARK   16  A    between atoms: _38  and  _62
REMARK   17  A    between atoms: _39  and  _41
REMARK   18  A    between atoms: _41  and  _42
REMARK   19  A    between atoms: _45  and  _47
REMARK   20  A    between atoms: _47  and  _48
REMARK   21  A    between atoms: _47  and  _50
REMARK   22  A    between atoms: _50  and  _51
REMARK   23  A    between atoms: _56  and  _58
REMARK   24  A    between atoms: _58  and  _59
REMARK   25  A    between atoms: _58  and  _61
REMARK   26  A    between atoms: _61  and  _62
REMARK   27  A    between atoms: _63  and  _65
REMARK   28  A    between atoms: _65  and  _66
REMARK   29  A    between atoms: _65  and  _68
REMARK   30  A    between atoms: _68  and  _69
REMARK   31  A    between atoms: _72  and  _74
REMARK   32  A    between atoms: _74  and  _75
REMARK   33  A    between atoms: _74  and  _77
REMARK   34  A    between atoms: _77  and  _78
REMARK   35  A    between atoms: _81  and  _83
REMARK   36  A    between atoms: _83  and  _84
REMARK   37  A    between atoms: _83  and  _86
REMARK   38  A    between atoms: _86  and  _87
REMARK   39  A    between atoms: _90  and  _92
REMARK   40  A    between atoms: _92  and  _93
REMARK   41  A    between atoms: _92  and  _95
REMARK   42  A    between atoms: _95  and  _96
REMARK   43  A    between atoms: _101  and  _103
REMARK   44  A    between atoms: _103  and  _104
REMARK   45  A    between atoms: _103  and  _106
REMARK   46  A    between atoms: _106  and  _107
REMARK   47  A    between atoms: _112  and  _113
REMARK   48  A    between atoms: _115  and  _117
REMARK   49  A    between atoms: _117  and  _118
REMARK   50  A    between atoms: _117  and  _120
REMARK   51  A    between atoms: _120  and  _121
REMARK   52  A    between atoms: _126  and  _127
REMARK   53  A    between atoms: _129  and  _131
REMARK   54  A    between atoms: _131  and  _132
REMARK   55  A    between atoms: _135  and  _137
REMARK   56  A    between atoms: _137  and  _138
REMARK   57  A    between atoms: _137  and  _140
REMARK   58  A    between atoms: _140  and  _141
REMARK   59  A    between atoms: _141  and  _142
REMARK   60  A    between atoms: _142  and  _143
REMARK   61  A    between atoms: _143  and  _144
REMARK   62  A    between atoms: _148  and  _150
REMARK   63  A    between atoms: _150  and  _151
REMARK   64  A    between atoms: _150  and  _153
REMARK   65  A    between atoms: _153  and  _154
REMARK   66  A    between atoms: _157  and  _159
REMARK   67  A    between atoms: _159  and  _160
REMARK   68  A    between atoms: _159  and  _162
REMARK   69  A    between atoms: _162  and  _163
REMARK   70  A    between atoms: _165  and  _167
REMARK   71  A    between atoms: _167  and  _168
REMARK   72  A    between atoms: _167  and  _170
REMARK   73  A    between atoms: _170  and  _171
REMARK   74  A    between atoms: _171  and  _281
REMARK   75  A    between atoms: _172  and  _174
REMARK   76  A    between atoms: _174  and  _175
REMARK   77  A    between atoms: _174  and  _177
REMARK   78  A    between atoms: _177  and  _178
REMARK   79  A    between atoms: _178  and  _179
REMARK   80  A    between atoms: _184  and  _186
REMARK   81  A    between atoms: _186  and  _187
REMARK   82  A    between atoms: _189  and  _191
REMARK   83  A    between atoms: _191  and  _192
REMARK   84  A    between atoms: _191  and  _194
REMARK   85  A    between atoms: _194  and  _195
REMARK   86  A    between atoms: _198  and  _200
REMARK   87  A    between atoms: _200  and  _201
REMARK   88  A    between atoms: _200  and  _203
REMARK   89  A    between atoms: _203  and  _204
REMARK   90  A    between atoms: _206  and  _208
REMARK   91  A    between atoms: _208  and  _209
REMARK   92  A    between atoms: _211  and  _213
REMARK   93  A    between atoms: _213  and  _214
REMARK   94  A    between atoms: _216  and  _218
REMARK   95  A    between atoms: _218  and  _219
REMARK   96  A    between atoms: _218  and  _221
REMARK   97  A    between atoms: _221  and  _222
REMARK   98  A    between atoms: _225  and  _227
REMARK   99  A    between atoms: _227  and  _228
REMARK  100  A    between atoms: _227  and  _230
REMARK  101  A    between atoms: _233  and  _235
REMARK  102  A    between atoms: _235  and  _236
REMARK  103  A    between atoms: _235  and  _238
REMARK  104  A    between atoms: _238  and  _239
REMARK  105  A    between atoms: _241  and  _243
REMARK  106  A    between atoms: _243  and  _244
REMARK  107  A    between atoms: _243  and  _246
REMARK  108  A    between atoms: _246  and  _247
REMARK  109  A    between atoms: _257  and  _259
REMARK  110  A    between atoms: _259  and  _260
REMARK  111  A    between atoms: _262  and  _264
REMARK  112  A    between atoms: _264  and  _265
REMARK  113  A    between atoms: _264  and  _267
REMARK  114  A    between atoms: _267  and  _268
REMARK  115  A    between atoms: _270  and  _272
REMARK  116  A    between atoms: _272  and  _273
REMARK  117  A    between atoms: _275  and  _277
REMARK  118  A    between atoms: _277  and  _278
REMARK  119  A    between atoms: _277  and  _280
REMARK  120  A    between atoms: _280  and  _281
REMARK  121  A    between atoms: _282  and  _284
REMARK  122  A    between atoms: _284  and  _285
REMARK  123  A    between atoms: _288  and  _290
REMARK  124  A    between atoms: _290  and  _291
REMARK  125  A    between atoms: _290  and  _293
REMARK  126  A    between atoms: _293  and  _294
REMARK  127  A    between atoms: _294  and  _295
REMARK  128  A    between atoms: _300  and  _302
REMARK  129  A    between atoms: _302  and  _303
REMARK  130  A    between atoms: _302  and  _305
REMARK  131  A    between atoms: _305  and  _306
REMARK  132  A    between atoms: _306  and  _307
REMARK  133  A    between atoms: _307  and  _308
REMARK  134  A    between atoms: _308  and  _309
REMARK  135  A    between atoms: _314  and  _315
REMARK  136  A    between atoms: _320  and  _322
REMARK  137  A    between atoms: _322  and  _323
REMARK  138  A    between atoms: _325  and  _327
REMARK  139  A    between atoms: _327  and  _328
REMARK  140  A    between atoms: _327  and  _330
REMARK  141  A    between atoms: _333  and  _335
REMARK  142  A    between atoms: _335  and  _336
REMARK  143  A    between atoms: _335  and  _338
REMARK  144  A    between atoms: _338  and  _339
REMARK  145  A    between atoms: _344  and  _345
REMARK                            x       y       z     vdW  Elec       q    Type
REMARK                         _______ _______ _______ _____ _____    ______ ____
ROOT
ATOM      1  O   HOH     1      46.752  -6.253  33.412  0.00  0.00    +0.000 OA
ENDROOT
TORSDOF 0
REMARK  Name = ../refined-set-2016/1gi4/1gi4_pocket.pdb
REMARK  145 active torsions:
REMARK  status: ('A' for Active; 'I' for Inactive)
REMARK    1  A    between atoms: _1  and  _5
REMARK    2  A    between atoms: _5  and  _6
REMARK    3  A    between atoms: _5  and  _8
REMARK    4  A    between atoms: _8  and  _9
REMARK    5  A    between atoms: _12  and  _14
REMARK    6  A    between atoms: _14  and  _15
REMARK    7  A    between atoms: _14  and  _17
REMARK    8  A    between atoms: _20  and  _22
REMARK    9  A    between atoms: _22  and  _23
REMARK   10  A    between atoms: _22  and  _25
REMARK   11  A    between atoms: _25  and  _26
REMARK   12  A    between atoms: _32  and  _34
REMARK   13  A    between atoms: _34  and  _35
REMARK   14  A    between atoms: _34  and  _37
REMARK   15  A    between atoms: _37  and  _38
REMARK   16  A    between atoms: _38  and  _62
REMARK   17  A    between atoms: _39  and  _41
REMARK   18  A    between atoms: _41  and  _42
REMARK   19  A    between atoms: _45  and  _47
REMARK   20  A    between atoms: _47  and  _48
REMARK   21  A    between atoms: _47  and  _50
REMARK   22  A    between atoms: _50  and  _51
REMARK   23  A    between atoms: _56  and  _58
REMARK   24  A    between atoms: _58  and  _59
REMARK   25  A    between atoms: _58  and  _61
REMARK   26  A    between atoms: _61  and  _62
REMARK   27  A    between atoms: _63  and  _65
REMARK   28  A    between atoms: _65  and  _66
REMARK   29  A    between atoms: _65  and  _68
REMARK   30  A    between atoms: _68  and  _69
REMARK   31  A    between atoms: _72  and  _74
REMARK   32  A    between atoms: _74  and  _75
REMARK   33  A    between atoms: _74  and  _77
REMARK   34  A    between atoms: _77  and  _78
REMARK   35  A    between atoms: _81  and  _83
REMARK   36  A    between atoms: _83  and  _84
REMARK   37  A    between atoms: _83  and  _86
REMARK   38  A    between atoms: _86  and  _87
REMARK   39  A    between atoms: _90  and  _92
REMARK   40  A    between atoms: _92  and  _93
REMARK   41  A    between atoms: _92  and  _95
REMARK   42  A    between atoms: _95  and  _96
REMARK   43  A    between atoms: _101  and  _103
REMARK   44  A    between atoms: _103  and  _104
REMARK   45  A    between atoms: _103  and  _106
REMARK   46  A    between atoms: _106  and  _107
REMARK   47  A    between atoms: _112  and  _113
REMARK   48  A    between atoms: _115  and  _117
REMARK   49  A    between atoms: _117  and  _118
REMARK   50  A    between atoms: _117  and  _120
REMARK   51  A    between atoms: _120  and  _121
REMARK   52  A    between atoms: _126  and  _127
REMARK   53  A    between atoms: _129  and  _131
REMARK   54  A    between atoms: _131  and  _132
REMARK   55  A    between atoms: _135  and  _137
REMARK   56  A    between atoms: _137  and  _138
REMARK   57  A    between atoms: _137  and  _140
REMARK   58  A    between atoms: _140  and  _141
REMARK   59  A    between atoms: _141  and  _142
REMARK   60  A    between atoms: _142  and  _143
REMARK   61  A    between atoms: _143  and  _144
REMARK   62  A    between atoms: _148  and  _150
REMARK   63  A    between atoms: _150  and  _151
REMARK   64  A    between atoms: _150  and  _153
REMARK   65  A    between atoms: _153  and  _154
REMARK   66  A    between atoms: _157  and  _159
REMARK   67  A    between atoms: _159  and  _160
REMARK   68  A    between atoms: _159  and  _162
REMARK   69  A    between atoms: _162  and  _163
REMARK   70  A    between atoms: _165  and  _167
REMARK   71  A    between atoms: _167  and  _168
REMARK   72  A    between atoms: _167  and  _170
REMARK   73  A    between atoms: _170  and  _171
REMARK   74  A    between atoms: _171  and  _281
REMARK   75  A    between atoms: _172  and  _174
REMARK   76  A    between atoms: _174  and  _175
REMARK   77  A    between atoms: _174  and  _177
REMARK   78  A    between atoms: _177  and  _178
REMARK   79  A    between atoms: _178  and  _179
REMARK   80  A    between atoms: _184  and  _186
REMARK   81  A    between atoms: _186  and  _187
REMARK   82  A    between atoms: _189  and  _191
REMARK   83  A    between atoms: _191  and  _192
REMARK   84  A    between atoms: _191  and  _194
REMARK   85  A    between atoms: _194  and  _195
REMARK   86  A    between atoms: _198  and  _200
REMARK   87  A    between atoms: _200  and  _201
REMARK   88  A    between atoms: _200  and  _203
REMARK   89  A    between atoms: _203  and  _204
REMARK   90  A    between atoms: _206  and  _208
REMARK   91  A    between atoms: _208  and  _209
REMARK   92  A    between atoms: _211  and  _213
REMARK   93  A    between atoms: _213  and  _214
REMARK   94  A    between atoms: _216  and  _218
REMARK   95  A    between atoms: _218  and  _219
REMARK   96  A    between atoms: _218  and  _221
REMARK   97  A    between atoms: _221  and  _222
REMARK   98  A    between atoms: _225  and  _227
REMARK   99  A    between atoms: _227  and  _228
REMARK  100  A    between atoms: _227  and  _230
REMARK  101  A    between atoms: _233  and  _235
REMARK  102  A    between atoms: _235  and  _236
REMARK  103  A    between atoms: _235  and  _238
REMARK  104  A    between atoms: _238  and  _239
REMARK  105  A    between atoms: _241  and  _243
REMARK  106  A    between atoms: _243  and  _244
REMARK  107  A    between atoms: _243  and  _246
REMARK  108  A    between atoms: _246  and  _247
REMARK  109  A    between atoms: _257  and  _259
REMARK  110  A    between atoms: _259  and  _260
REMARK  111  A    between atoms: _262  and  _264
REMARK  112  A    between atoms: _264  and  _265
REMARK  113  A    between atoms: _264  and  _267
REMARK  114  A    between atoms: _267  and  _268
REMARK  115  A    between atoms: _270  and  _272
REMARK  116  A    between atoms: _272  and  _273
REMARK  117  A    between atoms: _275  and  _277
REMARK  118  A    between atoms: _277  and  _278
REMARK  119  A    between atoms: _277  and  _280
REMARK  120  A    between atoms: _280  and  _281
REMARK  121  A    between atoms: _282  and  _284
REMARK  122  A    between atoms: _284  and  _285
REMARK  123  A    between atoms: _288  and  _290
REMARK  124  A    between atoms: _290  and  _291
REMARK  125  A    between atoms: _290  and  _293
REMARK  126  A    between atoms: _293  and  _294
REMARK  127  A    between atoms: _294  and  _295
REMARK  128  A    between atoms: _300  and  _302
REMARK  129  A    between atoms: _302  and  _303
REMARK  130  A    between atoms: _302  and  _305
REMARK  131  A    between atoms: _305  and  _306
REMARK  132  A    between atoms: _306  and  _307
REMARK  133  A    between atoms: _307  and  _308
REMARK  134  A    between atoms: _308  and  _309
REMARK  135  A    between atoms: _314  and  _315
REMARK  136  A    between atoms: _320  and  _322
REMARK  137  A    between atoms: _322  and  _323
REMARK  138  A    between atoms: _325  and  _327
REMARK  139  A    between atoms: _327  and  _328
REMARK  140  A    between atoms: _327  and  _330
REMARK  141  A    between atoms: _333  and  _335
REMARK  142  A    between atoms: _335  and  _336
REMARK  143  A    between atoms: _335  and  _338
REMARK  144  A    between atoms: _338  and  _339
REMARK  145  A    between atoms: _344  and  _345
REMARK                            x       y       z     vdW  Elec       q    Type
REMARK                         _______ _______ _______ _____ _____    ______ ____
ROOT
ATOM      1  O   HOH     1      37.202  -8.528  28.992  0.00  0.00    +0.000 OA
ENDROOT
TORSDOF 0
REMARK  Name = ../refined-set-2016/1gi4/1gi4_pocket.pdb
REMARK  145 active torsions:
REMARK  status: ('A' for Active; 'I' for Inactive)
REMARK    1  A    between atoms: _1  and  _5
REMARK    2  A    between atoms: _5  and  _6
REMARK    3  A    between atoms: _5  and  _8
REMARK    4  A    between atoms: _8  and  _9
REMARK    5  A    between atoms: _12  and  _14
REMARK    6  A    between atoms: _14  and  _15
REMARK    7  A    between atoms: _14  and  _17
REMARK    8  A    between atoms: _20  and  _22
REMARK    9  A    between atoms: _22  and  _23
REMARK   10  A    between atoms: _22  and  _25
REMARK   11  A    between atoms: _25  and  _26
REMARK   12  A    between atoms: _32  and  _34
REMARK   13  A    between atoms: _34  and  _35
REMARK   14  A    between atoms: _34  and  _37
REMARK   15  A    between atoms: _37  and  _38
REMARK   16  A    between atoms: _38  and  _62
REMARK   17  A    between atoms: _39  and  _41
REMARK   18  A    between atoms: _41  and  _42
REMARK   19  A    between atoms: _45  and  _47
REMARK   20  A    between atoms: _47  and  _48
REMARK   21  A    between atoms: _47  and  _50
REMARK   22  A    between atoms: _50  and  _51
REMARK   23  A    between atoms: _56  and  _58
REMARK   24  A    between atoms: _58  and  _59
REMARK   25  A    between atoms: _58  and  _61
REMARK   26  A    between atoms: _61  and  _62
REMARK   27  A    between atoms: _63  and  _65
REMARK   28  A    between atoms: _65  and  _66
REMARK   29  A    between atoms: _65  and  _68
REMARK   30  A    between atoms: _68  and  _69
REMARK   31  A    between atoms: _72  and  _74
REMARK   32  A    between atoms: _74  and  _75
REMARK   33  A    between atoms: _74  and  _77
REMARK   34  A    between atoms: _77  and  _78
REMARK   35  A    between atoms: _81  and  _83
REMARK   36  A    between atoms: _83  and  _84
REMARK   37  A    between atoms: _83  and  _86
REMARK   38  A    between atoms: _86  and  _87
REMARK   39  A    between atoms: _90  and  _92
REMARK   40  A    between atoms: _92  and  _93
REMARK   41  A    between atoms: _92  and  _95
REMARK   42  A    between atoms: _95  and  _96
REMARK   43  A    between atoms: _101  and  _103
REMARK   44  A    between atoms: _103  and  _104
REMARK   45  A    between atoms: _103  and  _106
REMARK   46  A    between atoms: _106  and  _107
REMARK   47  A    between atoms: _112  and  _113
REMARK   48  A    between atoms: _115  and  _117
REMARK   49  A    between atoms: _117  and  _118
REMARK   50  A    between atoms: _117  and  _120
REMARK   51  A    between atoms: _120  and  _121
REMARK   52  A    between atoms: _126  and  _127
REMARK   53  A    between atoms: _129  and  _131
REMARK   54  A    between atoms: _131  and  _132
REMARK   55  A    between atoms: _135  and  _137
REMARK   56  A    between atoms: _137  and  _138
REMARK   57  A    between atoms: _137  and  _140
REMARK   58  A    between atoms: _140  and  _141
REMARK   59  A    between atoms: _141  and  _142
REMARK   60  A    between atoms: _142  and  _143
REMARK   61  A    between atoms: _143  and  _144
REMARK   62  A    between atoms: _148  and  _150
REMARK   63  A    between atoms: _150  and  _151
REMARK   64  A    between atoms: _150  and  _153
REMARK   65  A    between atoms: _153  and  _154
REMARK   66  A    between atoms: _157  and  _159
REMARK   67  A    between atoms: _159  and  _160
REMARK   68  A    between atoms: _159  and  _162
REMARK   69  A    between atoms: _162  and  _163
REMARK   70  A    between atoms: _165  and  _167
REMARK   71  A    between atoms: _167  and  _168
REMARK   72  A    between atoms: _167  and  _170
REMARK   73  A    between atoms: _170  and  _171
REMARK   74  A    between atoms: _171  and  _281
REMARK   75  A    between atoms: _172  and  _174
REMARK   76  A    between atoms: _174  and  _175
REMARK   77  A    between atoms: _174  and  _177
REMARK   78  A    between atoms: _177  and  _178
REMARK   79  A    between atoms: _178  and  _179
REMARK   80  A    between atoms: _184  and  _186
REMARK   81  A    between atoms: _186  and  _187
REMARK   82  A    between atoms: _189  and  _191
REMARK   83  A    between atoms: _191  and  _192
REMARK   84  A    between atoms: _191  and  _194
REMARK   85  A    between atoms: _194  and  _195
REMARK   86  A    between atoms: _198  and  _200
REMARK   87  A    between atoms: _200  and  _201
REMARK   88  A    between atoms: _200  and  _203
REMARK   89  A    between atoms: _203  and  _204
REMARK   90  A    between atoms: _206  and  _208
REMARK   91  A    between atoms: _208  and  _209
REMARK   92  A    between atoms: _211  and  _213
REMARK   93  A    between atoms: _213  and  _214
REMARK   94  A    between atoms: _216  and  _218
REMARK   95  A    between atoms: _218  and  _219
REMARK   96  A    between atoms: _218  and  _221
REMARK   97  A    between atoms: _221  and  _222
REMARK   98  A    between atoms: _225  and  _227
REMARK   99  A    between atoms: _227  and  _228
REMARK  100  A    between atoms: _227  and  _230
REMARK  101  A    between atoms: _233  and  _235
REMARK  102  A    between atoms: _235  and  _236
REMARK  103  A    between atoms: _235  and  _238
REMARK  104  A    between atoms: _238  and  _239
REMARK  105  A    between atoms: _241  and  _243
REMARK  106  A    between atoms: _243  and  _244
REMARK  107  A    between atoms: _243  and  _246
REMARK  108  A    between atoms: _246  and  _247
REMARK  109  A    between atoms: _257  and  _259
REMARK  110  A    between atoms: _259  and  _260
REMARK  111  A    between atoms: _262  and  _264
REMARK  112  A    between atoms: _264  and  _265
REMARK  113  A    between atoms: _264  and  _267
REMARK  114  A    between atoms: _267  and  _268
REMARK  115  A    between atoms: _270  and  _272
REMARK  116  A    between atoms: _272  and  _273
REMARK  117  A    between atoms: _275  and  _277
REMARK  118  A    between atoms: _277  and  _278
REMARK  119  A    between atoms: _277  and  _280
REMARK  120  A    between atoms: _280  and  _281
REMARK  121  A    between atoms: _282  and  _284
REMARK  122  A    between atoms: _284  and  _285
REMARK  123  A    between atoms: _288  and  _290
REMARK  124  A    between atoms: _290  and  _291
REMARK  125  A    between atoms: _290  and  _293
REMARK  126  A    between atoms: _293  and  _294
REMARK  127  A    between atoms: _294  and  _295
REMARK  128  A    between atoms: _300  and  _302
REMARK  129  A    between atoms: _302  and  _303
REMARK  130  A    between atoms: _302  and  _305
REMARK  131  A    between atoms: _305  and  _306
REMARK  132  A    between atoms: _306  and  _307
REMARK  133  A    between atoms: _307  and  _308
REMARK  134  A    between atoms: _308  and  _309
REMARK  135  A    between atoms: _314  and  _315
REMARK  136  A    between atoms: _320  and  _322
REMARK  137  A    between atoms: _322  and  _323
REMARK  138  A    between atoms: _325  and  _327
REMARK  139  A    between atoms: _327  and  _328
REMARK  140  A    between atoms: _327  and  _330
REMARK  141  A    between atoms: _333  and  _335
REMARK  142  A    between atoms: _335  and  _336
REMARK  143  A    between atoms: _335  and  _338
REMARK  144  A    between atoms: _338  and  _339
REMARK  145  A    between atoms: _344  and  _345
REMARK                            x       y       z     vdW  Elec       q    Type
REMARK                         _______ _______ _______ _____ _____    ______ ____
ROOT
ATOM      1  O   HOH     1      39.733   0.077  29.760  0.00  0.00    +0.000 OA
ENDROOT
TORSDOF 0
REMARK  Name = ../refined-set-2016/1gi4/1gi4_pocket.pdb
REMARK  145 active torsions:
REMARK  status: ('A' for Active; 'I' for Inactive)
REMARK    1  A    between atoms: _1  and  _5
REMARK    2  A    between atoms: _5  and  _6
REMARK    3  A    between atoms: _5  and  _8
REMARK    4  A    between atoms: _8  and  _9
REMARK    5  A    between atoms: _12  and  _14
REMARK    6  A    between atoms: _14  and  _15
REMARK    7  A    between atoms: _14  and  _17
REMARK    8  A    between atoms: _20  and  _22
REMARK    9  A    between atoms: _22  and  _23
REMARK   10  A    between atoms: _22  and  _25
REMARK   11  A    between atoms: _25  and  _26
REMARK   12  A    between atoms: _32  and  _34
REMARK   13  A    between atoms: _34  and  _35
REMARK   14  A    between atoms: _34  and  _37
REMARK   15  A    between atoms: _37  and  _38
REMARK   16  A    between atoms: _38  and  _62
REMARK   17  A    between atoms: _39  and  _41
REMARK   18  A    between atoms: _41  and  _42
REMARK   19  A    between atoms: _45  and  _47
REMARK   20  A    between atoms: _47  and  _48
REMARK   21  A    between atoms: _47  and  _50
REMARK   22  A    between atoms: _50  and  _51
REMARK   23  A    between atoms: _56  and  _58
REMARK   24  A    between atoms: _58  and  _59
REMARK   25  A    between atoms: _58  and  _61
REMARK   26  A    between atoms: _61  and  _62
REMARK   27  A    between atoms: _63  and  _65
REMARK   28  A    between atoms: _65  and  _66
REMARK   29  A    between atoms: _65  and  _68
REMARK   30  A    between atoms: _68  and  _69
REMARK   31  A    between atoms: _72  and  _74
REMARK   32  A    between atoms: _74  and  _75
REMARK   33  A    between atoms: _74  and  _77
REMARK   34  A    between atoms: _77  and  _78
REMARK   35  A    between atoms: _81  and  _83
REMARK   36  A    between atoms: _83  and  _84
REMARK   37  A    between atoms: _83  and  _86
REMARK   38  A    between atoms: _86  and  _87
REMARK   39  A    between atoms: _90  and  _92
REMARK   40  A    between atoms: _92  and  _93
REMARK   41  A    between atoms: _92  and  _95
REMARK   42  A    between atoms: _95  and  _96
REMARK   43  A    between atoms: _101  and  _103
REMARK   44  A    between atoms: _103  and  _104
REMARK   45  A    between atoms: _103  and  _106
REMARK   46  A    between atoms: _106  and  _107
REMARK   47  A    between atoms: _112  and  _113
REMARK   48  A    between atoms: _115  and  _117
REMARK   49  A    between atoms: _117  and  _118
REMARK   50  A    between atoms: _117  and  _120
REMARK   51  A    between atoms: _120  and  _121
REMARK   52  A    between atoms: _126  and  _127
REMARK   53  A    between atoms: _129  and  _131
REMARK   54  A    between atoms: _131  and  _132
REMARK   55  A    between atoms: _135  and  _137
REMARK   56  A    between atoms: _137  and  _138
REMARK   57  A    between atoms: _137  and  _140
REMARK   58  A    between atoms: _140  and  _141
REMARK   59  A    between atoms: _141  and  _142
REMARK   60  A    between atoms: _142  and  _143
REMARK   61  A    between atoms: _143  and  _144
REMARK   62  A    between atoms: _148  and  _150
REMARK   63  A    between atoms: _150  and  _151
REMARK   64  A    between atoms: _150  and  _153
REMARK   65  A    between atoms: _153  and  _154
REMARK   66  A    between atoms: _157  and  _159
REMARK   67  A    between atoms: _159  and  _160
REMARK   68  A    between atoms: _159  and  _162
REMARK   69  A    between atoms: _162  and  _163
REMARK   70  A    between atoms: _165  and  _167
REMARK   71  A    between atoms: _167  and  _168
REMARK   72  A    between atoms: _167  and  _170
REMARK   73  A    between atoms: _170  and  _171
REMARK   74  A    between atoms: _171  and  _281
REMARK   75  A    between atoms: _172  and  _174
REMARK   76  A    between atoms: _174  and  _175
REMARK   77  A    between atoms: _174  and  _177
REMARK   78  A    between atoms: _177  and  _178
REMARK   79  A    between atoms: _178  and  _179
REMARK   80  A    between atoms: _184  and  _186
REMARK   81  A    between atoms: _186  and  _187
REMARK   82  A    between atoms: _189  and  _191
REMARK   83  A    between atoms: _191  and  _192
REMARK   84  A    between atoms: _191  and  _194
REMARK   85  A    between atoms: _194  and  _195
REMARK   86  A    between atoms: _198  and  _200
REMARK   87  A    between atoms: _200  and  _201
REMARK   88  A    between atoms: _200  and  _203
REMARK   89  A    between atoms: _203  and  _204
REMARK   90  A    between atoms: _206  and  _208
REMARK   91  A    between atoms: _208  and  _209
REMARK   92  A    between atoms: _211  and  _213
REMARK   93  A    between atoms: _213  and  _214
REMARK   94  A    between atoms: _216  and  _218
REMARK   95  A    between atoms: _218  and  _219
REMARK   96  A    between atoms: _218  and  _221
REMARK   97  A    between atoms: _221  and  _222
REMARK   98  A    between atoms: _225  and  _227
REMARK   99  A    between atoms: _227  and  _228
REMARK  100  A    between atoms: _227  and  _230
REMARK  101  A    between atoms: _233  and  _235
REMARK  102  A    between atoms: _235  and  _236
REMARK  103  A    between atoms: _235  and  _238
REMARK  104  A    between atoms: _238  and  _239
REMARK  105  A    between atoms: _241  and  _243
REMARK  106  A    between atoms: _243  and  _244
REMARK  107  A    between atoms: _243  and  _246
REMARK  108  A    between atoms: _246  and  _247
REMARK  109  A    between atoms: _257  and  _259
REMARK  110  A    between atoms: _259  and  _260
REMARK  111  A    between atoms: _262  and  _264
REMARK  112  A    between atoms: _264  and  _265
REMARK  113  A    between atoms: _264  and  _267
REMARK  114  A    between atoms: _267  and  _268
REMARK  115  A    between atoms: _270  and  _272
REMARK  116  A    between atoms: _272  and  _273
REMARK  117  A    between atoms: _275  and  _277
REMARK  118  A    between atoms: _277  and  _278
REMARK  119  A    between atoms: _277  and  _280
REMARK  120  A    between atoms: _280  and  _281
REMARK  121  A    between atoms: _282  and  _284
REMARK  122  A    between atoms: _284  and  _285
REMARK  123  A    between atoms: _288  and  _290
REMARK  124  A    between atoms: _290  and  _291
REMARK  125  A    between atoms: _290  and  _293
REMARK  126  A    between atoms: _293  and  _294
REMARK  127  A    between atoms: _294  and  _295
REMARK  128  A    between atoms: _300  and  _302
REMARK  129  A    between atoms: _302  and  _303
REMARK  130  A    between atoms: _302  and  _305
REMARK  131  A    between atoms: _305  and  _306
REMARK  132  A    between atoms: _306  and  _307
REMARK  133  A    between atoms: _307  and  _308
REMARK  134  A    between atoms: _308  and  _309
REMARK  135  A    between atoms: _314  and  _315
REMARK  136  A    between atoms: _320  and  _322
REMARK  137  A    between atoms: _322  and  _323
REMARK  138  A    between atoms: _325  and  _327
REMARK  139  A    between atoms: _327  and  _328
REMARK  140  A    between atoms: _327  and  _330
REMARK  141  A    between atoms: _333  and  _335
REMARK  142  A    between atoms: _335  and  _336
REMARK  143  A    between atoms: _335  and  _338
REMARK  144  A    between atoms: _338  and  _339
REMARK  145  A    between atoms: _344  and  _345
REMARK                            x       y       z     vdW  Elec       q    Type
REMARK                         _______ _______ _______ _____ _____    ______ ____
ROOT
ATOM      1  O   HOH     1      39.323  -2.603  29.005  0.00  0.00    +0.000 OA
ENDROOT
TORSDOF 0
REMARK  Name = ../refined-set-2016/1gi4/1gi4_pocket.pdb
REMARK  145 active torsions:
REMARK  status: ('A' for Active; 'I' for Inactive)
REMARK    1  A    between atoms: _1  and  _5
REMARK    2  A    between atoms: _5  and  _6
REMARK    3  A    between atoms: _5  and  _8
REMARK    4  A    between atoms: _8  and  _9
REMARK    5  A    between atoms: _12  and  _14
REMARK    6  A    between atoms: _14  and  _15
REMARK    7  A    between atoms: _14  and  _17
REMARK    8  A    between atoms: _20  and  _22
REMARK    9  A    between atoms: _22  and  _23
REMARK   10  A    between atoms: _22  and  _25
REMARK   11  A    between atoms: _25  and  _26
REMARK   12  A    between atoms: _32  and  _34
REMARK   13  A    between atoms: _34  and  _35
REMARK   14  A    between atoms: _34  and  _37
REMARK   15  A    between atoms: _37  and  _38
REMARK   16  A    between atoms: _38  and  _62
REMARK   17  A    between atoms: _39  and  _41
REMARK   18  A    between atoms: _41  and  _42
REMARK   19  A    between atoms: _45  and  _47
REMARK   20  A    between atoms: _47  and  _48
REMARK   21  A    between atoms: _47  and  _50
REMARK   22  A    between atoms: _50  and  _51
REMARK   23  A    between atoms: _56  and  _58
REMARK   24  A    between atoms: _58  and  _59
REMARK   25  A    between atoms: _58  and  _61
REMARK   26  A    between atoms: _61  and  _62
REMARK   27  A    between atoms: _63  and  _65
REMARK   28  A    between atoms: _65  and  _66
REMARK   29  A    between atoms: _65  and  _68
REMARK   30  A    between atoms: _68  and  _69
REMARK   31  A    between atoms: _72  and  _74
REMARK   32  A    between atoms: _74  and  _75
REMARK   33  A    between atoms: _74  and  _77
REMARK   34  A    between atoms: _77  and  _78
REMARK   35  A    between atoms: _81  and  _83
REMARK   36  A    between atoms: _83  and  _84
REMARK   37  A    between atoms: _83  and  _86
REMARK   38  A    between atoms: _86  and  _87
REMARK   39  A    between atoms: _90  and  _92
REMARK   40  A    between atoms: _92  and  _93
REMARK   41  A    between atoms: _92  and  _95
REMARK   42  A    between atoms: _95  and  _96
REMARK   43  A    between atoms: _101  and  _103
REMARK   44  A    between atoms: _103  and  _104
REMARK   45  A    between atoms: _103  and  _106
REMARK   46  A    between atoms: _106  and  _107
REMARK   47  A    between atoms: _112  and  _113
REMARK   48  A    between atoms: _115  and  _117
REMARK   49  A    between atoms: _117  and  _118
REMARK   50  A    between atoms: _117  and  _120
REMARK   51  A    between atoms: _120  and  _121
REMARK   52  A    between atoms: _126  and  _127
REMARK   53  A    between atoms: _129  and  _131
REMARK   54  A    between atoms: _131  and  _132
REMARK   55  A    between atoms: _135  and  _137
REMARK   56  A    between atoms: _137  and  _138
REMARK   57  A    between atoms: _137  and  _140
REMARK   58  A    between atoms: _140  and  _141
REMARK   59  A    between atoms: _141  and  _142
REMARK   60  A    between atoms: _142  and  _143
REMARK   61  A    between atoms: _143  and  _144
REMARK   62  A    between atoms: _148  and  _150
REMARK   63  A    between atoms: _150  and  _151
REMARK   64  A    between atoms: _150  and  _153
REMARK   65  A    between atoms: _153  and  _154
REMARK   66  A    between atoms: _157  and  _159
REMARK   67  A    between atoms: _159  and  _160
REMARK   68  A    between atoms: _159  and  _162
REMARK   69  A    between atoms: _162  and  _163
REMARK   70  A    between atoms: _165  and  _167
REMARK   71  A    between atoms: _167  and  _168
REMARK   72  A    between atoms: _167  and  _170
REMARK   73  A    between atoms: _170  and  _171
REMARK   74  A    between atoms: _171  and  _281
REMARK   75  A    between atoms: _172  and  _174
REMARK   76  A    between atoms: _174  and  _175
REMARK   77  A    between atoms: _174  and  _177
REMARK   78  A    between atoms: _177  and  _178
REMARK   79  A    between atoms: _178  and  _179
REMARK   80  A    between atoms: _184  and  _186
REMARK   81  A    between atoms: _186  and  _187
REMARK   82  A    between atoms: _189  and  _191
REMARK   83  A    between atoms: _191  and  _192
REMARK   84  A    between atoms: _191  and  _194
REMARK   85  A    between atoms: _194  and  _195
REMARK   86  A    between atoms: _198  and  _200
REMARK   87  A    between atoms: _200  and  _201
REMARK   88  A    between atoms: _200  and  _203
REMARK   89  A    between atoms: _203  and  _204
REMARK   90  A    between atoms: _206  and  _208
REMARK   91  A    between atoms: _208  and  _209
REMARK   92  A    between atoms: _211  and  _213
REMARK   93  A    between atoms: _213  and  _214
REMARK   94  A    between atoms: _216  and  _218
REMARK   95  A    between atoms: _218  and  _219
REMARK   96  A    between atoms: _218  and  _221
REMARK   97  A    between atoms: _221  and  _222
REMARK   98  A    between atoms: _225  and  _227
REMARK   99  A    between atoms: _227  and  _228
REMARK  100  A    between atoms: _227  and  _230
REMARK  101  A    between atoms: _233  and  _235
REMARK  102  A    between atoms: _235  and  _236
REMARK  103  A    between atoms: _235  and  _238
REMARK  104  A    between atoms: _238  and  _239
REMARK  105  A    between atoms: _241  and  _243
REMARK  106  A    between atoms: _243  and  _244
REMARK  107  A    between atoms: _243  and  _246
REMARK  108  A    between atoms: _246  and  _247
REMARK  109  A    between atoms: _257  and  _259
REMARK  110  A    between atoms: _259  and  _260
REMARK  111  A    between atoms: _262  and  _264
REMARK  112  A    between atoms: _264  and  _265
REMARK  113  A    between atoms: _264  and  _267
REMARK  114  A    between atoms: _267  and  _268
REMARK  115  A    between atoms: _270  and  _272
REMARK  116  A    between atoms: _272  and  _273
REMARK  117  A    between atoms: _275  and  _277
REMARK  118  A    between atoms: _277  and  _278
REMARK  119  A    between atoms: _277  and  _280
REMARK  120  A    between atoms: _280  and  _281
REMARK  121  A    between atoms: _282  and  _284
REMARK  122  A    between atoms: _284  and  _285
REMARK  123  A    between atoms: _288  and  _290
REMARK  124  A    between atoms: _290  and  _291
REMARK  125  A    between atoms: _290  and  _293
REMARK  126  A    between atoms: _293  and  _294
REMARK  127  A    between atoms: _294  and  _295
REMARK  128  A    between atoms: _300  and  _302
REMARK  129  A    between atoms: _302  and  _303
REMARK  130  A    between atoms: _302  and  _305
REMARK  131  A    between atoms: _305  and  _306
REMARK  132  A    between atoms: _306  and  _307
REMARK  133  A    between atoms: _307  and  _308
REMARK  134  A    between atoms: _308  and  _309
REMARK  135  A    between atoms: _314  and  _315
REMARK  136  A    between atoms: _320  and  _322
REMARK  137  A    between atoms: _322  and  _323
REMARK  138  A    between atoms: _325  and  _327
REMARK  139  A    between atoms: _327  and  _328
REMARK  140  A    between atoms: _327  and  _330
REMARK  141  A    between atoms: _333  and  _335
REMARK  142  A    between atoms: _335  and  _336
REMARK  143  A    between atoms: _335  and  _338
REMARK  144  A    between atoms: _338  and  _339
REMARK  145  A    between atoms: _344  and  _345
REMARK                            x       y       z     vdW  Elec       q    Type
REMARK                         _______ _______ _______ _____ _____    ______ ____
ROOT
ATOM      1  O   HOH     1      46.732   0.959  35.494  0.00  0.00    +0.000 OA
ENDROOT
TORSDOF 0
REMARK  Name = ../refined-set-2016/1gi4/1gi4_pocket.pdb
REMARK  145 active torsions:
REMARK  status: ('A' for Active; 'I' for Inactive)
REMARK    1  A    between atoms: _1  and  _5
REMARK    2  A    between atoms: _5  and  _6
REMARK    3  A    between atoms: _5  and  _8
REMARK    4  A    between atoms: _8  and  _9
REMARK    5  A    between atoms: _12  and  _14
REMARK    6  A    between atoms: _14  and  _15
REMARK    7  A    between atoms: _14  and  _17
REMARK    8  A    between atoms: _20  and  _22
REMARK    9  A    between atoms: _22  and  _23
REMARK   10  A    between atoms: _22  and  _25
REMARK   11  A    between atoms: _25  and  _26
REMARK   12  A    between atoms: _32  and  _34
REMARK   13  A    between atoms: _34  and  _35
REMARK   14  A    between atoms: _34  and  _37
REMARK   15  A    between atoms: _37  and  _38
REMARK   16  A    between atoms: _38  and  _62
REMARK   17  A    between atoms: _39  and  _41
REMARK   18  A    between atoms: _41  and  _42
REMARK   19  A    between atoms: _45  and  _47
REMARK   20  A    between atoms: _47  and  _48
REMARK   21  A    between atoms: _47  and  _50
REMARK   22  A    between atoms: _50  and  _51
REMARK   23  A    between atoms: _56  and  _58
REMARK   24  A    between atoms: _58  and  _59
REMARK   25  A    between atoms: _58  and  _61
REMARK   26  A    between atoms: _61  and  _62
REMARK   27  A    between atoms: _63  and  _65
REMARK   28  A    between atoms: _65  and  _66
REMARK   29  A    between atoms: _65  and  _68
REMARK   30  A    between atoms: _68  and  _69
REMARK   31  A    between atoms: _72  and  _74
REMARK   32  A    between atoms: _74  and  _75
REMARK   33  A    between atoms: _74  and  _77
REMARK   34  A    between atoms: _77  and  _78
REMARK   35  A    between atoms: _81  and  _83
REMARK   36  A    between atoms: _83  and  _84
REMARK   37  A    between atoms: _83  and  _86
REMARK   38  A    between atoms: _86  and  _87
REMARK   39  A    between atoms: _90  and  _92
REMARK   40  A    between atoms: _92  and  _93
REMARK   41  A    between atoms: _92  and  _95
REMARK   42  A    between atoms: _95  and  _96
REMARK   43  A    between atoms: _101  and  _103
REMARK   44  A    between atoms: _103  and  _104
REMARK   45  A    between atoms: _103  and  _106
REMARK   46  A    between atoms: _106  and  _107
REMARK   47  A    between atoms: _112  and  _113
REMARK   48  A    between atoms: _115  and  _117
REMARK   49  A    between atoms: _117  and  _118
REMARK   50  A    between atoms: _117  and  _120
REMARK   51  A    between atoms: _120  and  _121
REMARK   52  A    between atoms: _126  and  _127
REMARK   53  A    between atoms: _129  and  _131
REMARK   54  A    between atoms: _131  and  _132
REMARK   55  A    between atoms: _135  and  _137
REMARK   56  A    between atoms: _137  and  _138
REMARK   57  A    between atoms: _137  and  _140
REMARK   58  A    between atoms: _140  and  _141
REMARK   59  A    between atoms: _141  and  _142
REMARK   60  A    between atoms: _142  and  _143
REMARK   61  A    between atoms: _143  and  _144
REMARK   62  A    between atoms: _148  and  _150
REMARK   63  A    between atoms: _150  and  _151
REMARK   64  A    between atoms: _150  and  _153
REMARK   65  A    between atoms: _153  and  _154
REMARK   66  A    between atoms: _157  and  _159
REMARK   67  A    between atoms: _159  and  _160
REMARK   68  A    between atoms: _159  and  _162
REMARK   69  A    between atoms: _162  and  _163
REMARK   70  A    between atoms: _165  and  _167
REMARK   71  A    between atoms: _167  and  _168
REMARK   72  A    between atoms: _167  and  _170
REMARK   73  A    between atoms: _170  and  _171
REMARK   74  A    between atoms: _171  and  _281
REMARK   75  A    between atoms: _172  and  _174
REMARK   76  A    between atoms: _174  and  _175
REMARK   77  A    between atoms: _174  and  _177
REMARK   78  A    between atoms: _177  and  _178
REMARK   79  A    between atoms: _178  and  _179
REMARK   80  A    between atoms: _184  and  _186
REMARK   81  A    between atoms: _186  and  _187
REMARK   82  A    between atoms: _189  and  _191
REMARK   83  A    between atoms: _191  and  _192
REMARK   84  A    between atoms: _191  and  _194
REMARK   85  A    between atoms: _194  and  _195
REMARK   86  A    between atoms: _198  and  _200
REMARK   87  A    between atoms: _200  and  _201
REMARK   88  A    between atoms: _200  and  _203
REMARK   89  A    between atoms: _203  and  _204
REMARK   90  A    between atoms: _206  and  _208
REMARK   91  A    between atoms: _208  and  _209
REMARK   92  A    between atoms: _211  and  _213
REMARK   93  A    between atoms: _213  and  _214
REMARK   94  A    between atoms: _216  and  _218
REMARK   95  A    between atoms: _218  and  _219
REMARK   96  A    between atoms: _218  and  _221
REMARK   97  A    between atoms: _221  and  _222
REMARK   98  A    between atoms: _225  and  _227
REMARK   99  A    between atoms: _227  and  _228
REMARK  100  A    between atoms: _227  and  _230
REMARK  101  A    between atoms: _233  and  _235
REMARK  102  A    between atoms: _235  and  _236
REMARK  103  A    between atoms: _235  and  _238
REMARK  104  A    between atoms: _238  and  _239
REMARK  105  A    between atoms: _241  and  _243
REMARK  106  A    between atoms: _243  and  _244
REMARK  107  A    between atoms: _243  and  _246
REMARK  108  A    between atoms: _246  and  _247
REMARK  109  A    between atoms: _257  and  _259
REMARK  110  A    between atoms: _259  and  _260
REMARK  111  A    between atoms: _262  and  _264
REMARK  112  A    between atoms: _264  and  _265
REMARK  113  A    between atoms: _264  and  _267
REMARK  114  A    between atoms: _267  and  _268
REMARK  115  A    between atoms: _270  and  _272
REMARK  116  A    between atoms: _272  and  _273
REMARK  117  A    between atoms: _275  and  _277
REMARK  118  A    between atoms: _277  and  _278
REMARK  119  A    between atoms: _277  and  _280
REMARK  120  A    between atoms: _280  and  _281
REMARK  121  A    between atoms: _282  and  _284
REMARK  122  A    between atoms: _284  and  _285
REMARK  123  A    between atoms: _288  and  _290
REMARK  124  A    between atoms: _290  and  _291
REMARK  125  A    between atoms: _290  and  _293
REMARK  126  A    between atoms: _293  and  _294
REMARK  127  A    between atoms: _294  and  _295
REMARK  128  A    between atoms: _300  and  _302
REMARK  129  A    between atoms: _302  and  _303
REMARK  130  A    between atoms: _302  and  _305
REMARK  131  A    between atoms: _305  and  _306
REMARK  132  A    between atoms: _306  and  _307
REMARK  133  A    between atoms: _307  and  _308
REMARK  134  A    between atoms: _308  and  _309
REMARK  135  A    between atoms: _314  and  _315
REMARK  136  A    between atoms: _320  and  _322
REMARK  137  A    between atoms: _322  and  _323
REMARK  138  A    between atoms: _325  and  _327
REMARK  139  A    between atoms: _327  and  _328
REMARK  140  A    between atoms: _327  and  _330
REMARK  141  A    between atoms: _333  and  _335
REMARK  142  A    between atoms: _335  and  _336
REMARK  143  A    between atoms: _335  and  _338
REMARK  144  A    between atoms: _338  and  _339
REMARK  145  A    between atoms: _344  and  _345
REMARK                            x       y       z     vdW  Elec       q    Type
REMARK                         _______ _______ _______ _____ _____    ______ ____
ROOT
ATOM      1  O   HOH     1      42.991   3.034  35.968  0.00  0.00    +0.000 OA
ENDROOT
TORSDOF 0
REMARK  Name = ../refined-set-2016/1gi4/1gi4_pocket.pdb
REMARK  145 active torsions:
REMARK  status: ('A' for Active; 'I' for Inactive)
REMARK    1  A    between atoms: _1  and  _5
REMARK    2  A    between atoms: _5  and  _6
REMARK    3  A    between atoms: _5  and  _8
REMARK    4  A    between atoms: _8  and  _9
REMARK    5  A    between atoms: _12  and  _14
REMARK    6  A    between atoms: _14  and  _15
REMARK    7  A    between atoms: _14  and  _17
REMARK    8  A    between atoms: _20  and  _22
REMARK    9  A    between atoms: _22  and  _23
REMARK   10  A    between atoms: _22  and  _25
REMARK   11  A    between atoms: _25  and  _26
REMARK   12  A    between atoms: _32  and  _34
REMARK   13  A    between atoms: _34  and  _35
REMARK   14  A    between atoms: _34  and  _37
REMARK   15  A    between atoms: _37  and  _38
REMARK   16  A    between atoms: _38  and  _62
REMARK   17  A    between atoms: _39  and  _41
REMARK   18  A    between atoms: _41  and  _42
REMARK   19  A    between atoms: _45  and  _47
REMARK   20  A    between atoms: _47  and  _48
REMARK   21  A    between atoms: _47  and  _50
REMARK   22  A    between atoms: _50  and  _51
REMARK   23  A    between atoms: _56  and  _58
REMARK   24  A    between atoms: _58  and  _59
REMARK   25  A    between atoms: _58  and  _61
REMARK   26  A    between atoms: _61  and  _62
REMARK   27  A    between atoms: _63  and  _65
REMARK   28  A    between atoms: _65  and  _66
REMARK   29  A    between atoms: _65  and  _68
REMARK   30  A    between atoms: _68  and  _69
REMARK   31  A    between atoms: _72  and  _74
REMARK   32  A    between atoms: _74  and  _75
REMARK   33  A    between atoms: _74  and  _77
REMARK   34  A    between atoms: _77  and  _78
REMARK   35  A    between atoms: _81  and  _83
REMARK   36  A    between atoms: _83  and  _84
REMARK   37  A    between atoms: _83  and  _86
REMARK   38  A    between atoms: _86  and  _87
REMARK   39  A    between atoms: _90  and  _92
REMARK   40  A    between atoms: _92  and  _93
REMARK   41  A    between atoms: _92  and  _95
REMARK   42  A    between atoms: _95  and  _96
REMARK   43  A    between atoms: _101  and  _103
REMARK   44  A    between atoms: _103  and  _104
REMARK   45  A    between atoms: _103  and  _106
REMARK   46  A    between atoms: _106  and  _107
REMARK   47  A    between atoms: _112  and  _113
REMARK   48  A    between atoms: _115  and  _117
REMARK   49  A    between atoms: _117  and  _118
REMARK   50  A    between atoms: _117  and  _120
REMARK   51  A    between atoms: _120  and  _121
REMARK   52  A    between atoms: _126  and  _127
REMARK   53  A    between atoms: _129  and  _131
REMARK   54  A    between atoms: _131  and  _132
REMARK   55  A    between atoms: _135  and  _137
REMARK   56  A    between atoms: _137  and  _138
REMARK   57  A    between atoms: _137  and  _140
REMARK   58  A    between atoms: _140  and  _141
REMARK   59  A    between atoms: _141  and  _142
REMARK   60  A    between atoms: _142  and  _143
REMARK   61  A    between atoms: _143  and  _144
REMARK   62  A    between atoms: _148  and  _150
REMARK   63  A    between atoms: _150  and  _151
REMARK   64  A    between atoms: _150  and  _153
REMARK   65  A    between atoms: _153  and  _154
REMARK   66  A    between atoms: _157  and  _159
REMARK   67  A    between atoms: _159  and  _160
REMARK   68  A    between atoms: _159  and  _162
REMARK   69  A    between atoms: _162  and  _163
REMARK   70  A    between atoms: _165  and  _167
REMARK   71  A    between atoms: _167  and  _168
REMARK   72  A    between atoms: _167  and  _170
REMARK   73  A    between atoms: _170  and  _171
REMARK   74  A    between atoms: _171  and  _281
REMARK   75  A    between atoms: _172  and  _174
REMARK   76  A    between atoms: _174  and  _175
REMARK   77  A    between atoms: _174  and  _177
REMARK   78  A    between atoms: _177  and  _178
REMARK   79  A    between atoms: _178  and  _179
REMARK   80  A    between atoms: _184  and  _186
REMARK   81  A    between atoms: _186  and  _187
REMARK   82  A    between atoms: _189  and  _191
REMARK   83  A    between atoms: _191  and  _192
REMARK   84  A    between atoms: _191  and  _194
REMARK   85  A    between atoms: _194  and  _195
REMARK   86  A    between atoms: _198  and  _200
REMARK   87  A    between atoms: _200  and  _201
REMARK   88  A    between atoms: _200  and  _203
REMARK   89  A    between atoms: _203  and  _204
REMARK   90  A    between atoms: _206  and  _208
REMARK   91  A    between atoms: _208  and  _209
REMARK   92  A    between atoms: _211  and  _213
REMARK   93  A    between atoms: _213  and  _214
REMARK   94  A    between atoms: _216  and  _218
REMARK   95  A    between atoms: _218  and  _219
REMARK   96  A    between atoms: _218  and  _221
REMARK   97  A    between atoms: _221  and  _222
REMARK   98  A    between atoms: _225  and  _227
REMARK   99  A    between atoms: _227  and  _228
REMARK  100  A    between atoms: _227  and  _230
REMARK  101  A    between atoms: _233  and  _235
REMARK  102  A    between atoms: _235  and  _236
REMARK  103  A    between atoms: _235  and  _238
REMARK  104  A    between atoms: _238  and  _239
REMARK  105  A    between atoms: _241  and  _243
REMARK  106  A    between atoms: _243  and  _244
REMARK  107  A    between atoms: _243  and  _246
REMARK  108  A    between atoms: _246  and  _247
REMARK  109  A    between atoms: _257  and  _259
REMARK  110  A    between atoms: _259  and  _260
REMARK  111  A    between atoms: _262  and  _264
REMARK  112  A    between atoms: _264  and  _265
REMARK  113  A    between atoms: _264  and  _267
REMARK  114  A    between atoms: _267  and  _268
REMARK  115  A    between atoms: _270  and  _272
REMARK  116  A    between atoms: _272  and  _273
REMARK  117  A    between atoms: _275  and  _277
REMARK  118  A    between atoms: _277  and  _278
REMARK  119  A    between atoms: _277  and  _280
REMARK  120  A    between atoms: _280  and  _281
REMARK  121  A    between atoms: _282  and  _284
REMARK  122  A    between atoms: _284  and  _285
REMARK  123  A    between atoms: _288  and  _290
REMARK  124  A    between atoms: _290  and  _291
REMARK  125  A    between atoms: _290  and  _293
REMARK  126  A    between atoms: _293  and  _294
REMARK  127  A    between atoms: _294  and  _295
REMARK  128  A    between atoms: _300  and  _302
REMARK  129  A    between atoms: _302  and  _303
REMARK  130  A    between atoms: _302  and  _305
REMARK  131  A    between atoms: _305  and  _306
REMARK  132  A    between atoms: _306  and  _307
REMARK  133  A    between atoms: _307  and  _308
REMARK  134  A    between atoms: _308  and  _309
REMARK  135  A    between atoms: _314  and  _315
REMARK  136  A    between atoms: _320  and  _322
REMARK  137  A    between atoms: _322  and  _323
REMARK  138  A    between atoms: _325  and  _327
REMARK  139  A    between atoms: _327  and  _328
REMARK  140  A    between atoms: _327  and  _330
REMARK  141  A    between atoms: _333  and  _335
REMARK  142  A    between atoms: _335  and  _336
REMARK  143  A    between atoms: _335  and  _338
REMARK  144  A    between atoms: _338  and  _339
REMARK  145  A    between atoms: _344  and  _345
REMARK                            x       y       z     vdW  Elec       q    Type
REMARK                         _______ _______ _______ _____ _____    ______ ____
ROOT
ATOM      1  O   HOH     1      45.281   3.570  39.061  0.00  0.00    +0.000 OA
ENDROOT
TORSDOF 0
REMARK  Name = ../refined-set-2016/1gi4/1gi4_pocket.pdb
REMARK  145 active torsions:
REMARK  status: ('A' for Active; 'I' for Inactive)
REMARK    1  A    between atoms: _1  and  _5
REMARK    2  A    between atoms: _5  and  _6
REMARK    3  A    between atoms: _5  and  _8
REMARK    4  A    between atoms: _8  and  _9
REMARK    5  A    between atoms: _12  and  _14
REMARK    6  A    between atoms: _14  and  _15
REMARK    7  A    between atoms: _14  and  _17
REMARK    8  A    between atoms: _20  and  _22
REMARK    9  A    between atoms: _22  and  _23
REMARK   10  A    between atoms: _22  and  _25
REMARK   11  A    between atoms: _25  and  _26
REMARK   12  A    between atoms: _32  and  _34
REMARK   13  A    between atoms: _34  and  _35
REMARK   14  A    between atoms: _34  and  _37
REMARK   15  A    between atoms: _37  and  _38
REMARK   16  A    between atoms: _38  and  _62
REMARK   17  A    between atoms: _39  and  _41
REMARK   18  A    between atoms: _41  and  _42
REMARK   19  A    between atoms: _45  and  _47
REMARK   20  A    between atoms: _47  and  _48
REMARK   21  A    between atoms: _47  and  _50
REMARK   22  A    between atoms: _50  and  _51
REMARK   23  A    between atoms: _56  and  _58
REMARK   24  A    between atoms: _58  and  _59
REMARK   25  A    between atoms: _58  and  _61
REMARK   26  A    between atoms: _61  and  _62
REMARK   27  A    between atoms: _63  and  _65
REMARK   28  A    between atoms: _65  and  _66
REMARK   29  A    between atoms: _65  and  _68
REMARK   30  A    between atoms: _68  and  _69
REMARK   31  A    between atoms: _72  and  _74
REMARK   32  A    between atoms: _74  and  _75
REMARK   33  A    between atoms: _74  and  _77
REMARK   34  A    between atoms: _77  and  _78
REMARK   35  A    between atoms: _81  and  _83
REMARK   36  A    between atoms: _83  and  _84
REMARK   37  A    between atoms: _83  and  _86
REMARK   38  A    between atoms: _86  and  _87
REMARK   39  A    between atoms: _90  and  _92
REMARK   40  A    between atoms: _92  and  _93
REMARK   41  A    between atoms: _92  and  _95
REMARK   42  A    between atoms: _95  and  _96
REMARK   43  A    between atoms: _101  and  _103
REMARK   44  A    between atoms: _103  and  _104
REMARK   45  A    between atoms: _103  and  _106
REMARK   46  A    between atoms: _106  and  _107
REMARK   47  A    between atoms: _112  and  _113
REMARK   48  A    between atoms: _115  and  _117
REMARK   49  A    between atoms: _117  and  _118
REMARK   50  A    between atoms: _117  and  _120
REMARK   51  A    between atoms: _120  and  _121
REMARK   52  A    between atoms: _126  and  _127
REMARK   53  A    between atoms: _129  and  _131
REMARK   54  A    between atoms: _131  and  _132
REMARK   55  A    between atoms: _135  and  _137
REMARK   56  A    between atoms: _137  and  _138
REMARK   57  A    between atoms: _137  and  _140
REMARK   58  A    between atoms: _140  and  _141
REMARK   59  A    between atoms: _141  and  _142
REMARK   60  A    between atoms: _142  and  _143
REMARK   61  A    between atoms: _143  and  _144
REMARK   62  A    between atoms: _148  and  _150
REMARK   63  A    between atoms: _150  and  _151
REMARK   64  A    between atoms: _150  and  _153
REMARK   65  A    between atoms: _153  and  _154
REMARK   66  A    between atoms: _157  and  _159
REMARK   67  A    between atoms: _159  and  _160
REMARK   68  A    between atoms: _159  and  _162
REMARK   69  A    between atoms: _162  and  _163
REMARK   70  A    between atoms: _165  and  _167
REMARK   71  A    between atoms: _167  and  _168
REMARK   72  A    between atoms: _167  and  _170
REMARK   73  A    between atoms: _170  and  _171
REMARK   74  A    between atoms: _171  and  _281
REMARK   75  A    between atoms: _172  and  _174
REMARK   76  A    between atoms: _174  and  _175
REMARK   77  A    between atoms: _174  and  _177
REMARK   78  A    between atoms: _177  and  _178
REMARK   79  A    between atoms: _178  and  _179
REMARK   80  A    between atoms: _184  and  _186
REMARK   81  A    between atoms: _186  and  _187
REMARK   82  A    between atoms: _189  and  _191
REMARK   83  A    between atoms: _191  and  _192
REMARK   84  A    between atoms: _191  and  _194
REMARK   85  A    between atoms: _194  and  _195
REMARK   86  A    between atoms: _198  and  _200
REMARK   87  A    between atoms: _200  and  _201
REMARK   88  A    between atoms: _200  and  _203
REMARK   89  A    between atoms: _203  and  _204
REMARK   90  A    between atoms: _206  and  _208
REMARK   91  A    between atoms: _208  and  _209
REMARK   92  A    between atoms: _211  and  _213
REMARK   93  A    between atoms: _213  and  _214
REMARK   94  A    between atoms: _216  and  _218
REMARK   95  A    between atoms: _218  and  _219
REMARK   96  A    between atoms: _218  and  _221
REMARK   97  A    between atoms: _221  and  _222
REMARK   98  A    between atoms: _225  and  _227
REMARK   99  A    between atoms: _227  and  _228
REMARK  100  A    between atoms: _227  and  _230
REMARK  101  A    between atoms: _233  and  _235
REMARK  102  A    between atoms: _235  and  _236
REMARK  103  A    between atoms: _235  and  _238
REMARK  104  A    between atoms: _238  and  _239
REMARK  105  A    between atoms: _241  and  _243
REMARK  106  A    between atoms: _243  and  _244
REMARK  107  A    between atoms: _243  and  _246
REMARK  108  A    between atoms: _246  and  _247
REMARK  109  A    between atoms: _257  and  _259
REMARK  110  A    between atoms: _259  and  _260
REMARK  111  A    between atoms: _262  and  _264
REMARK  112  A    between atoms: _264  and  _265
REMARK  113  A    between atoms: _264  and  _267
REMARK  114  A    between atoms: _267  and  _268
REMARK  115  A    between atoms: _270  and  _272
REMARK  116  A    between atoms: _272  and  _273
REMARK  117  A    between atoms: _275  and  _277
REMARK  118  A    between atoms: _277  and  _278
REMARK  119  A    between atoms: _277  and  _280
REMARK  120  A    between atoms: _280  and  _281
REMARK  121  A    between atoms: _282  and  _284
REMARK  122  A    between atoms: _284  and  _285
REMARK  123  A    between atoms: _288  and  _290
REMARK  124  A    between atoms: _290  and  _291
REMARK  125  A    between atoms: _290  and  _293
REMARK  126  A    between atoms: _293  and  _294
REMARK  127  A    between atoms: _294  and  _295
REMARK  128  A    between atoms: _300  and  _302
REMARK  129  A    between atoms: _302  and  _303
REMARK  130  A    between atoms: _302  and  _305
REMARK  131  A    between atoms: _305  and  _306
REMARK  132  A    between atoms: _306  and  _307
REMARK  133  A    between atoms: _307  and  _308
REMARK  134  A    between atoms: _308  and  _309
REMARK  135  A    between atoms: _314  and  _315
REMARK  136  A    between atoms: _320  and  _322
REMARK  137  A    between atoms: _322  and  _323
REMARK  138  A    between atoms: _325  and  _327
REMARK  139  A    between atoms: _327  and  _328
REMARK  140  A    between atoms: _327  and  _330
REMARK  141  A    between atoms: _333  and  _335
REMARK  142  A    between atoms: _335  and  _336
REMARK  143  A    between atoms: _335  and  _338
REMARK  144  A    between atoms: _338  and  _339
REMARK  145  A    between atoms: _344  and  _345
REMARK                            x       y       z     vdW  Elec       q    Type
REMARK                         _______ _______ _______ _____ _____    ______ ____
ROOT
ATOM      1  O   HOH     1      42.001   1.344  38.134  0.00  0.00    +0.000 OA
ENDROOT
TORSDOF 0
REMARK  Name = ../refined-set-2016/1gi4/1gi4_pocket.pdb
REMARK  145 active torsions:
REMARK  status: ('A' for Active; 'I' for Inactive)
REMARK    1  A    between atoms: _1  and  _5
REMARK    2  A    between atoms: _5  and  _6
REMARK    3  A    between atoms: _5  and  _8
REMARK    4  A    between atoms: _8  and  _9
REMARK    5  A    between atoms: _12  and  _14
REMARK    6  A    between atoms: _14  and  _15
REMARK    7  A    between atoms: _14  and  _17
REMARK    8  A    between atoms: _20  and  _22
REMARK    9  A    between atoms: _22  and  _23
REMARK   10  A    between atoms: _22  and  _25
REMARK   11  A    between atoms: _25  and  _26
REMARK   12  A    between atoms: _32  and  _34
REMARK   13  A    between atoms: _34  and  _35
REMARK   14  A    between atoms: _34  and  _37
REMARK   15  A    between atoms: _37  and  _38
REMARK   16  A    between atoms: _38  and  _62
REMARK   17  A    between atoms: _39  and  _41
REMARK   18  A    between atoms: _41  and  _42
REMARK   19  A    between atoms: _45  and  _47
REMARK   20  A    between atoms: _47  and  _48
REMARK   21  A    between atoms: _47  and  _50
REMARK   22  A    between atoms: _50  and  _51
REMARK   23  A    between atoms: _56  and  _58
REMARK   24  A    between atoms: _58  and  _59
REMARK   25  A    between atoms: _58  and  _61
REMARK   26  A    between atoms: _61  and  _62
REMARK   27  A    between atoms: _63  and  _65
REMARK   28  A    between atoms: _65  and  _66
REMARK   29  A    between atoms: _65  and  _68
REMARK   30  A    between atoms: _68  and  _69
REMARK   31  A    between atoms: _72  and  _74
REMARK   32  A    between atoms: _74  and  _75
REMARK   33  A    between atoms: _74  and  _77
REMARK   34  A    between atoms: _77  and  _78
REMARK   35  A    between atoms: _81  and  _83
REMARK   36  A    between atoms: _83  and  _84
REMARK   37  A    between atoms: _83  and  _86
REMARK   38  A    between atoms: _86  and  _87
REMARK   39  A    between atoms: _90  and  _92
REMARK   40  A    between atoms: _92  and  _93
REMARK   41  A    between atoms: _92  and  _95
REMARK   42  A    between atoms: _95  and  _96
REMARK   43  A    between atoms: _101  and  _103
REMARK   44  A    between atoms: _103  and  _104
REMARK   45  A    between atoms: _103  and  _106
REMARK   46  A    between atoms: _106  and  _107
REMARK   47  A    between atoms: _112  and  _113
REMARK   48  A    between atoms: _115  and  _117
REMARK   49  A    between atoms: _117  and  _118
REMARK   50  A    between atoms: _117  and  _120
REMARK   51  A    between atoms: _120  and  _121
REMARK   52  A    between atoms: _126  and  _127
REMARK   53  A    between atoms: _129  and  _131
REMARK   54  A    between atoms: _131  and  _132
REMARK   55  A    between atoms: _135  and  _137
REMARK   56  A    between atoms: _137  and  _138
REMARK   57  A    between atoms: _137  and  _140
REMARK   58  A    between atoms: _140  and  _141
REMARK   59  A    between atoms: _141  and  _142
REMARK   60  A    between atoms: _142  and  _143
REMARK   61  A    between atoms: _143  and  _144
REMARK   62  A    between atoms: _148  and  _150
REMARK   63  A    between atoms: _150  and  _151
REMARK   64  A    between atoms: _150  and  _153
REMARK   65  A    between atoms: _153  and  _154
REMARK   66  A    between atoms: _157  and  _159
REMARK   67  A    between atoms: _159  and  _160
REMARK   68  A    between atoms: _159  and  _162
REMARK   69  A    between atoms: _162  and  _163
REMARK   70  A    between atoms: _165  and  _167
REMARK   71  A    between atoms: _167  and  _168
REMARK   72  A    between atoms: _167  and  _170
REMARK   73  A    between atoms: _170  and  _171
REMARK   74  A    between atoms: _171  and  _281
REMARK   75  A    between atoms: _172  and  _174
REMARK   76  A    between atoms: _174  and  _175
REMARK   77  A    between atoms: _174  and  _177
REMARK   78  A    between atoms: _177  and  _178
REMARK   79  A    between atoms: _178  and  _179
REMARK   80  A    between atoms: _184  and  _186
REMARK   81  A    between atoms: _186  and  _187
REMARK   82  A    between atoms: _189  and  _191
REMARK   83  A    between atoms: _191  and  _192
REMARK   84  A    between atoms: _191  and  _194
REMARK   85  A    between atoms: _194  and  _195
REMARK   86  A    between atoms: _198  and  _200
REMARK   87  A    between atoms: _200  and  _201
REMARK   88  A    between atoms: _200  and  _203
REMARK   89  A    between atoms: _203  and  _204
REMARK   90  A    between atoms: _206  and  _208
REMARK   91  A    between atoms: _208  and  _209
REMARK   92  A    between atoms: _211  and  _213
REMARK   93  A    between atoms: _213  and  _214
REMARK   94  A    between atoms: _216  and  _218
REMARK   95  A    between atoms: _218  and  _219
REMARK   96  A    between atoms: _218  and  _221
REMARK   97  A    between atoms: _221  and  _222
REMARK   98  A    between atoms: _225  and  _227
REMARK   99  A    between atoms: _227  and  _228
REMARK  100  A    between atoms: _227  and  _230
REMARK  101  A    between atoms: _233  and  _235
REMARK  102  A    between atoms: _235  and  _236
REMARK  103  A    between atoms: _235  and  _238
REMARK  104  A    between atoms: _238  and  _239
REMARK  105  A    between atoms: _241  and  _243
REMARK  106  A    between atoms: _243  and  _244
REMARK  107  A    between atoms: _243  and  _246
REMARK  108  A    between atoms: _246  and  _247
REMARK  109  A    between atoms: _257  and  _259
REMARK  110  A    between atoms: _259  and  _260
REMARK  111  A    between atoms: _262  and  _264
REMARK  112  A    between atoms: _264  and  _265
REMARK  113  A    between atoms: _264  and  _267
REMARK  114  A    between atoms: _267  and  _268
REMARK  115  A    between atoms: _270  and  _272
REMARK  116  A    between atoms: _272  and  _273
REMARK  117  A    between atoms: _275  and  _277
REMARK  118  A    between atoms: _277  and  _278
REMARK  119  A    between atoms: _277  and  _280
REMARK  120  A    between atoms: _280  and  _281
REMARK  121  A    between atoms: _282  and  _284
REMARK  122  A    between atoms: _284  and  _285
REMARK  123  A    between atoms: _288  and  _290
REMARK  124  A    between atoms: _290  and  _291
REMARK  125  A    between atoms: _290  and  _293
REMARK  126  A    between atoms: _293  and  _294
REMARK  127  A    between atoms: _294  and  _295
REMARK  128  A    between atoms: _300  and  _302
REMARK  129  A    between atoms: _302  and  _303
REMARK  130  A    between atoms: _302  and  _305
REMARK  131  A    between atoms: _305  and  _306
REMARK  132  A    between atoms: _306  and  _307
REMARK  133  A    between atoms: _307  and  _308
REMARK  134  A    between atoms: _308  and  _309
REMARK  135  A    between atoms: _314  and  _315
REMARK  136  A    between atoms: _320  and  _322
REMARK  137  A    between atoms: _322  and  _323
REMARK  138  A    between atoms: _325  and  _327
REMARK  139  A    between atoms: _327  and  _328
REMARK  140  A    between atoms: _327  and  _330
REMARK  141  A    between atoms: _333  and  _335
REMARK  142  A    between atoms: _335  and  _336
REMARK  143  A    between atoms: _335  and  _338
REMARK  144  A    between atoms: _338  and  _339
REMARK  145  A    between atoms: _344  and  _345
REMARK                            x       y       z     vdW  Elec       q    Type
REMARK                         _______ _______ _______ _____ _____    ______ ____
ROOT
ATOM      1  O   HOH     1      46.577  -9.061  30.321  0.00  0.00    +0.000 OA
ENDROOT
TORSDOF 0
REMARK  Name = ../refined-set-2016/1gi4/1gi4_pocket.pdb
REMARK  145 active torsions:
REMARK  status: ('A' for Active; 'I' for Inactive)
REMARK    1  A    between atoms: _1  and  _5
REMARK    2  A    between atoms: _5  and  _6
REMARK    3  A    between atoms: _5  and  _8
REMARK    4  A    between atoms: _8  and  _9
REMARK    5  A    between atoms: _12  and  _14
REMARK    6  A    between atoms: _14  and  _15
REMARK    7  A    between atoms: _14  and  _17
REMARK    8  A    between atoms: _20  and  _22
REMARK    9  A    between atoms: _22  and  _23
REMARK   10  A    between atoms: _22  and  _25
REMARK   11  A    between atoms: _25  and  _26
REMARK   12  A    between atoms: _32  and  _34
REMARK   13  A    between atoms: _34  and  _35
REMARK   14  A    between atoms: _34  and  _37
REMARK   15  A    between atoms: _37  and  _38
REMARK   16  A    between atoms: _38  and  _62
REMARK   17  A    between atoms: _39  and  _41
REMARK   18  A    between atoms: _41  and  _42
REMARK   19  A    between atoms: _45  and  _47
REMARK   20  A    between atoms: _47  and  _48
REMARK   21  A    between atoms: _47  and  _50
REMARK   22  A    between atoms: _50  and  _51
REMARK   23  A    between atoms: _56  and  _58
REMARK   24  A    between atoms: _58  and  _59
REMARK   25  A    between atoms: _58  and  _61
REMARK   26  A    between atoms: _61  and  _62
REMARK   27  A    between atoms: _63  and  _65
REMARK   28  A    between atoms: _65  and  _66
REMARK   29  A    between atoms: _65  and  _68
REMARK   30  A    between atoms: _68  and  _69
REMARK   31  A    between atoms: _72  and  _74
REMARK   32  A    between atoms: _74  and  _75
REMARK   33  A    between atoms: _74  and  _77
REMARK   34  A    between atoms: _77  and  _78
REMARK   35  A    between atoms: _81  and  _83
REMARK   36  A    between atoms: _83  and  _84
REMARK   37  A    between atoms: _83  and  _86
REMARK   38  A    between atoms: _86  and  _87
REMARK   39  A    between atoms: _90  and  _92
REMARK   40  A    between atoms: _92  and  _93
REMARK   41  A    between atoms: _92  and  _95
REMARK   42  A    between atoms: _95  and  _96
REMARK   43  A    between atoms: _101  and  _103
REMARK   44  A    between atoms: _103  and  _104
REMARK   45  A    between atoms: _103  and  _106
REMARK   46  A    between atoms: _106  and  _107
REMARK   47  A    between atoms: _112  and  _113
REMARK   48  A    between atoms: _115  and  _117
REMARK   49  A    between atoms: _117  and  _118
REMARK   50  A    between atoms: _117  and  _120
REMARK   51  A    between atoms: _120  and  _121
REMARK   52  A    between atoms: _126  and  _127
REMARK   53  A    between atoms: _129  and  _131
REMARK   54  A    between atoms: _131  and  _132
REMARK   55  A    between atoms: _135  and  _137
REMARK   56  A    between atoms: _137  and  _138
REMARK   57  A    between atoms: _137  and  _140
REMARK   58  A    between atoms: _140  and  _141
REMARK   59  A    between atoms: _141  and  _142
REMARK   60  A    between atoms: _142  and  _143
REMARK   61  A    between atoms: _143  and  _144
REMARK   62  A    between atoms: _148  and  _150
REMARK   63  A    between atoms: _150  and  _151
REMARK   64  A    between atoms: _150  and  _153
REMARK   65  A    between atoms: _153  and  _154
REMARK   66  A    between atoms: _157  and  _159
REMARK   67  A    between atoms: _159  and  _160
REMARK   68  A    between atoms: _159  and  _162
REMARK   69  A    between atoms: _162  and  _163
REMARK   70  A    between atoms: _165  and  _167
REMARK   71  A    between atoms: _167  and  _168
REMARK   72  A    between atoms: _167  and  _170
REMARK   73  A    between atoms: _170  and  _171
REMARK   74  A    between atoms: _171  and  _281
REMARK   75  A    between atoms: _172  and  _174
REMARK   76  A    between atoms: _174  and  _175
REMARK   77  A    between atoms: _174  and  _177
REMARK   78  A    between atoms: _177  and  _178
REMARK   79  A    between atoms: _178  and  _179
REMARK   80  A    between atoms: _184  and  _186
REMARK   81  A    between atoms: _186  and  _187
REMARK   82  A    between atoms: _189  and  _191
REMARK   83  A    between atoms: _191  and  _192
REMARK   84  A    between atoms: _191  and  _194
REMARK   85  A    between atoms: _194  and  _195
REMARK   86  A    between atoms: _198  and  _200
REMARK   87  A    between atoms: _200  and  _201
REMARK   88  A    between atoms: _200  and  _203
REMARK   89  A    between atoms: _203  and  _204
REMARK   90  A    between atoms: _206  and  _208
REMARK   91  A    between atoms: _208  and  _209
REMARK   92  A    between atoms: _211  and  _213
REMARK   93  A    between atoms: _213  and  _214
REMARK   94  A    between atoms: _216  and  _218
REMARK   95  A    between atoms: _218  and  _219
REMARK   96  A    between atoms: _218  and  _221
REMARK   97  A    between atoms: _221  and  _222
REMARK   98  A    between atoms: _225  and  _227
REMARK   99  A    between atoms: _227  and  _228
REMARK  100  A    between atoms: _227  and  _230
REMARK  101  A    between atoms: _233  and  _235
REMARK  102  A    between atoms: _235  and  _236
REMARK  103  A    between atoms: _235  and  _238
REMARK  104  A    between atoms: _238  and  _239
REMARK  105  A    between atoms: _241  and  _243
REMARK  106  A    between atoms: _243  and  _244
REMARK  107  A    between atoms: _243  and  _246
REMARK  108  A    between atoms: _246  and  _247
REMARK  109  A    between atoms: _257  and  _259
REMARK  110  A    between atoms: _259  and  _260
REMARK  111  A    between atoms: _262  and  _264
REMARK  112  A    between atoms: _264  and  _265
REMARK  113  A    between atoms: _264  and  _267
REMARK  114  A    between atoms: _267  and  _268
REMARK  115  A    between atoms: _270  and  _272
REMARK  116  A    between atoms: _272  and  _273
REMARK  117  A    between atoms: _275  and  _277
REMARK  118  A    between atoms: _277  and  _278
REMARK  119  A    between atoms: _277  and  _280
REMARK  120  A    between atoms: _280  and  _281
REMARK  121  A    between atoms: _282  and  _284
REMARK  122  A    between atoms: _284  and  _285
REMARK  123  A    between atoms: _288  and  _290
REMARK  124  A    between atoms: _290  and  _291
REMARK  125  A    between atoms: _290  and  _293
REMARK  126  A    between atoms: _293  and  _294
REMARK  127  A    between atoms: _294  and  _295
REMARK  128  A    between atoms: _300  and  _302
REMARK  129  A    between atoms: _302  and  _303
REMARK  130  A    between atoms: _302  and  _305
REMARK  131  A    between atoms: _305  and  _306
REMARK  132  A    between atoms: _306  and  _307
REMARK  133  A    between atoms: _307  and  _308
REMARK  134  A    between atoms: _308  and  _309
REMARK  135  A    between atoms: _314  and  _315
REMARK  136  A    between atoms: _320  and  _322
REMARK  137  A    between atoms: _322  and  _323
REMARK  138  A    between atoms: _325  and  _327
REMARK  139  A    between atoms: _327  and  _328
REMARK  140  A    between atoms: _327  and  _330
REMARK  141  A    between atoms: _333  and  _335
REMARK  142  A    between atoms: _335  and  _336
REMARK  143  A    between atoms: _335  and  _338
REMARK  144  A    between atoms: _338  and  _339
REMARK  145  A    between atoms: _344  and  _345
REMARK                            x       y       z     vdW  Elec       q    Type
REMARK                         _______ _______ _______ _____ _____    ______ ____
ROOT
ATOM      1  O   HOH     1      43.512  -6.135  37.939  0.00  0.00    +0.000 OA
ENDROOT
TORSDOF 0
REMARK  Name = ../refined-set-2016/1gi4/1gi4_pocket.pdb
REMARK  145 active torsions:
REMARK  status: ('A' for Active; 'I' for Inactive)
REMARK    1  A    between atoms: _1  and  _5
REMARK    2  A    between atoms: _5  and  _6
REMARK    3  A    between atoms: _5  and  _8
REMARK    4  A    between atoms: _8  and  _9
REMARK    5  A    between atoms: _12  and  _14
REMARK    6  A    between atoms: _14  and  _15
REMARK    7  A    between atoms: _14  and  _17
REMARK    8  A    between atoms: _20  and  _22
REMARK    9  A    between atoms: _22  and  _23
REMARK   10  A    between atoms: _22  and  _25
REMARK   11  A    between atoms: _25  and  _26
REMARK   12  A    between atoms: _32  and  _34
REMARK   13  A    between atoms: _34  and  _35
REMARK   14  A    between atoms: _34  and  _37
REMARK   15  A    between atoms: _37  and  _38
REMARK   16  A    between atoms: _38  and  _62
REMARK   17  A    between atoms: _39  and  _41
REMARK   18  A    between atoms: _41  and  _42
REMARK   19  A    between atoms: _45  and  _47
REMARK   20  A    between atoms: _47  and  _48
REMARK   21  A    between atoms: _47  and  _50
REMARK   22  A    between atoms: _50  and  _51
REMARK   23  A    between atoms: _56  and  _58
REMARK   24  A    between atoms: _58  and  _59
REMARK   25  A    between atoms: _58  and  _61
REMARK   26  A    between atoms: _61  and  _62
REMARK   27  A    between atoms: _63  and  _65
REMARK   28  A    between atoms: _65  and  _66
REMARK   29  A    between atoms: _65  and  _68
REMARK   30  A    between atoms: _68  and  _69
REMARK   31  A    between atoms: _72  and  _74
REMARK   32  A    between atoms: _74  and  _75
REMARK   33  A    between atoms: _74  and  _77
REMARK   34  A    between atoms: _77  and  _78
REMARK   35  A    between atoms: _81  and  _83
REMARK   36  A    between atoms: _83  and  _84
REMARK   37  A    between atoms: _83  and  _86
REMARK   38  A    between atoms: _86  and  _87
REMARK   39  A    between atoms: _90  and  _92
REMARK   40  A    between atoms: _92  and  _93
REMARK   41  A    between atoms: _92  and  _95
REMARK   42  A    between atoms: _95  and  _96
REMARK   43  A    between atoms: _101  and  _103
REMARK   44  A    between atoms: _103  and  _104
REMARK   45  A    between atoms: _103  and  _106
REMARK   46  A    between atoms: _106  and  _107
REMARK   47  A    between atoms: _112  and  _113
REMARK   48  A    between atoms: _115  and  _117
REMARK   49  A    between atoms: _117  and  _118
REMARK   50  A    between atoms: _117  and  _120
REMARK   51  A    between atoms: _120  and  _121
REMARK   52  A    between atoms: _126  and  _127
REMARK   53  A    between atoms: _129  and  _131
REMARK   54  A    between atoms: _131  and  _132
REMARK   55  A    between atoms: _135  and  _137
REMARK   56  A    between atoms: _137  and  _138
REMARK   57  A    between atoms: _137  and  _140
REMARK   58  A    between atoms: _140  and  _141
REMARK   59  A    between atoms: _141  and  _142
REMARK   60  A    between atoms: _142  and  _143
REMARK   61  A    between atoms: _143  and  _144
REMARK   62  A    between atoms: _148  and  _150
REMARK   63  A    between atoms: _150  and  _151
REMARK   64  A    between atoms: _150  and  _153
REMARK   65  A    between atoms: _153  and  _154
REMARK   66  A    between atoms: _157  and  _159
REMARK   67  A    between atoms: _159  and  _160
REMARK   68  A    between atoms: _159  and  _162
REMARK   69  A    between atoms: _162  and  _163
REMARK   70  A    between atoms: _165  and  _167
REMARK   71  A    between atoms: _167  and  _168
REMARK   72  A    between atoms: _167  and  _170
REMARK   73  A    between atoms: _170  and  _171
REMARK   74  A    between atoms: _171  and  _281
REMARK   75  A    between atoms: _172  and  _174
REMARK   76  A    between atoms: _174  and  _175
REMARK   77  A    between atoms: _174  and  _177
REMARK   78  A    between atoms: _177  and  _178
REMARK   79  A    between atoms: _178  and  _179
REMARK   80  A    between atoms: _184  and  _186
REMARK   81  A    between atoms: _186  and  _187
REMARK   82  A    between atoms: _189  and  _191
REMARK   83  A    between atoms: _191  and  _192
REMARK   84  A    between atoms: _191  and  _194
REMARK   85  A    between atoms: _194  and  _195
REMARK   86  A    between atoms: _198  and  _200
REMARK   87  A    between atoms: _200  and  _201
REMARK   88  A    between atoms: _200  and  _203
REMARK   89  A    between atoms: _203  and  _204
REMARK   90  A    between atoms: _206  and  _208
REMARK   91  A    between atoms: _208  and  _209
REMARK   92  A    between atoms: _211  and  _213
REMARK   93  A    between atoms: _213  and  _214
REMARK   94  A    between atoms: _216  and  _218
REMARK   95  A    between atoms: _218  and  _219
REMARK   96  A    between atoms: _218  and  _221
REMARK   97  A    between atoms: _221  and  _222
REMARK   98  A    between atoms: _225  and  _227
REMARK   99  A    between atoms: _227  and  _228
REMARK  100  A    between atoms: _227  and  _230
REMARK  101  A    between atoms: _233  and  _235
REMARK  102  A    between atoms: _235  and  _236
REMARK  103  A    between atoms: _235  and  _238
REMARK  104  A    between atoms: _238  and  _239
REMARK  105  A    between atoms: _241  and  _243
REMARK  106  A    between atoms: _243  and  _244
REMARK  107  A    between atoms: _243  and  _246
REMARK  108  A    between atoms: _246  and  _247
REMARK  109  A    between atoms: _257  and  _259
REMARK  110  A    between atoms: _259  and  _260
REMARK  111  A    between atoms: _262  and  _264
REMARK  112  A    between atoms: _264  and  _265
REMARK  113  A    between atoms: _264  and  _267
REMARK  114  A    between atoms: _267  and  _268
REMARK  115  A    between atoms: _270  and  _272
REMARK  116  A    between atoms: _272  and  _273
REMARK  117  A    between atoms: _275  and  _277
REMARK  118  A    between atoms: _277  and  _278
REMARK  119  A    between atoms: _277  and  _280
REMARK  120  A    between atoms: _280  and  _281
REMARK  121  A    between atoms: _282  and  _284
REMARK  122  A    between atoms: _284  and  _285
REMARK  123  A    between atoms: _288  and  _290
REMARK  124  A    between atoms: _290  and  _291
REMARK  125  A    between atoms: _290  and  _293
REMARK  126  A    between atoms: _293  and  _294
REMARK  127  A    between atoms: _294  and  _295
REMARK  128  A    between atoms: _300  and  _302
REMARK  129  A    between atoms: _302  and  _303
REMARK  130  A    between atoms: _302  and  _305
REMARK  131  A    between atoms: _305  and  _306
REMARK  132  A    between atoms: _306  and  _307
REMARK  133  A    between atoms: _307  and  _308
REMARK  134  A    between atoms: _308  and  _309
REMARK  135  A    between atoms: _314  and  _315
REMARK  136  A    between atoms: _320  and  _322
REMARK  137  A    between atoms: _322  and  _323
REMARK  138  A    between atoms: _325  and  _327
REMARK  139  A    between atoms: _327  and  _328
REMARK  140  A    between atoms: _327  and  _330
REMARK  141  A    between atoms: _333  and  _335
REMARK  142  A    between atoms: _335  and  _336
REMARK  143  A    between atoms: _335  and  _338
REMARK  144  A    between atoms: _338  and  _339
REMARK  145  A    between atoms: _344  and  _345
REMARK                            x       y       z     vdW  Elec       q    Type
REMARK                         _______ _______ _______ _____ _____    ______ ____
ROOT
ATOM      1  O   HOH     1      42.905  -9.863  31.473  0.00  0.00    +0.000 OA
ENDROOT
TORSDOF 0
REMARK  Name = ../refined-set-2016/1gi4/1gi4_pocket.pdb
REMARK  145 active torsions:
REMARK  status: ('A' for Active; 'I' for Inactive)
REMARK    1  A    between atoms: _1  and  _5
REMARK    2  A    between atoms: _5  and  _6
REMARK    3  A    between atoms: _5  and  _8
REMARK    4  A    between atoms: _8  and  _9
REMARK    5  A    between atoms: _12  and  _14
REMARK    6  A    between atoms: _14  and  _15
REMARK    7  A    between atoms: _14  and  _17
REMARK    8  A    between atoms: _20  and  _22
REMARK    9  A    between atoms: _22  and  _23
REMARK   10  A    between atoms: _22  and  _25
REMARK   11  A    between atoms: _25  and  _26
REMARK   12  A    between atoms: _32  and  _34
REMARK   13  A    between atoms: _34  and  _35
REMARK   14  A    between atoms: _34  and  _37
REMARK   15  A    between atoms: _37  and  _38
REMARK   16  A    between atoms: _38  and  _62
REMARK   17  A    between atoms: _39  and  _41
REMARK   18  A    between atoms: _41  and  _42
REMARK   19  A    between atoms: _45  and  _47
REMARK   20  A    between atoms: _47  and  _48
REMARK   21  A    between atoms: _47  and  _50
REMARK   22  A    between atoms: _50  and  _51
REMARK   23  A    between atoms: _56  and  _58
REMARK   24  A    between atoms: _58  and  _59
REMARK   25  A    between atoms: _58  and  _61
REMARK   26  A    between atoms: _61  and  _62
REMARK   27  A    between atoms: _63  and  _65
REMARK   28  A    between atoms: _65  and  _66
REMARK   29  A    between atoms: _65  and  _68
REMARK   30  A    between atoms: _68  and  _69
REMARK   31  A    between atoms: _72  and  _74
REMARK   32  A    between atoms: _74  and  _75
REMARK   33  A    between atoms: _74  and  _77
REMARK   34  A    between atoms: _77  and  _78
REMARK   35  A    between atoms: _81  and  _83
REMARK   36  A    between atoms: _83  and  _84
REMARK   37  A    between atoms: _83  and  _86
REMARK   38  A    between atoms: _86  and  _87
REMARK   39  A    between atoms: _90  and  _92
REMARK   40  A    between atoms: _92  and  _93
REMARK   41  A    between atoms: _92  and  _95
REMARK   42  A    between atoms: _95  and  _96
REMARK   43  A    between atoms: _101  and  _103
REMARK   44  A    between atoms: _103  and  _104
REMARK   45  A    between atoms: _103  and  _106
REMARK   46  A    between atoms: _106  and  _107
REMARK   47  A    between atoms: _112  and  _113
REMARK   48  A    between atoms: _115  and  _117
REMARK   49  A    between atoms: _117  and  _118
REMARK   50  A    between atoms: _117  and  _120
REMARK   51  A    between atoms: _120  and  _121
REMARK   52  A    between atoms: _126  and  _127
REMARK   53  A    between atoms: _129  and  _131
REMARK   54  A    between atoms: _131  and  _132
REMARK   55  A    between atoms: _135  and  _137
REMARK   56  A    between atoms: _137  and  _138
REMARK   57  A    between atoms: _137  and  _140
REMARK   58  A    between atoms: _140  and  _141
REMARK   59  A    between atoms: _141  and  _142
REMARK   60  A    between atoms: _142  and  _143
REMARK   61  A    between atoms: _143  and  _144
REMARK   62  A    between atoms: _148  and  _150
REMARK   63  A    between atoms: _150  and  _151
REMARK   64  A    between atoms: _150  and  _153
REMARK   65  A    between atoms: _153  and  _154
REMARK   66  A    between atoms: _157  and  _159
REMARK   67  A    between atoms: _159  and  _160
REMARK   68  A    between atoms: _159  and  _162
REMARK   69  A    between atoms: _162  and  _163
REMARK   70  A    between atoms: _165  and  _167
REMARK   71  A    between atoms: _167  and  _168
REMARK   72  A    between atoms: _167  and  _170
REMARK   73  A    between atoms: _170  and  _171
REMARK   74  A    between atoms: _171  and  _281
REMARK   75  A    between atoms: _172  and  _174
REMARK   76  A    between atoms: _174  and  _175
REMARK   77  A    between atoms: _174  and  _177
REMARK   78  A    between atoms: _177  and  _178
REMARK   79  A    between atoms: _178  and  _179
REMARK   80  A    between atoms: _184  and  _186
REMARK   81  A    between atoms: _186  and  _187
REMARK   82  A    between atoms: _189  and  _191
REMARK   83  A    between atoms: _191  and  _192
REMARK   84  A    between atoms: _191  and  _194
REMARK   85  A    between atoms: _194  and  _195
REMARK   86  A    between atoms: _198  and  _200
REMARK   87  A    between atoms: _200  and  _201
REMARK   88  A    between atoms: _200  and  _203
REMARK   89  A    between atoms: _203  and  _204
REMARK   90  A    between atoms: _206  and  _208
REMARK   91  A    between atoms: _208  and  _209
REMARK   92  A    between atoms: _211  and  _213
REMARK   93  A    between atoms: _213  and  _214
REMARK   94  A    between atoms: _216  and  _218
REMARK   95  A    between atoms: _218  and  _219
REMARK   96  A    between atoms: _218  and  _221
REMARK   97  A    between atoms: _221  and  _222
REMARK   98  A    between atoms: _225  and  _227
REMARK   99  A    between atoms: _227  and  _228
REMARK  100  A    between atoms: _227  and  _230
REMARK  101  A    between atoms: _233  and  _235
REMARK  102  A    between atoms: _235  and  _236
REMARK  103  A    between atoms: _235  and  _238
REMARK  104  A    between atoms: _238  and  _239
REMARK  105  A    between atoms: _241  and  _243
REMARK  106  A    between atoms: _243  and  _244
REMARK  107  A    between atoms: _243  and  _246
REMARK  108  A    between atoms: _246  and  _247
REMARK  109  A    between atoms: _257  and  _259
REMARK  110  A    between atoms: _259  and  _260
REMARK  111  A    between atoms: _262  and  _264
REMARK  112  A    between atoms: _264  and  _265
REMARK  113  A    between atoms: _264  and  _267
REMARK  114  A    between atoms: _267  and  _268
REMARK  115  A    between atoms: _270  and  _272
REMARK  116  A    between atoms: _272  and  _273
REMARK  117  A    between atoms: _275  and  _277
REMARK  118  A    between atoms: _277  and  _278
REMARK  119  A    between atoms: _277  and  _280
REMARK  120  A    between atoms: _280  and  _281
REMARK  121  A    between atoms: _282  and  _284
REMARK  122  A    between atoms: _284  and  _285
REMARK  123  A    between atoms: _288  and  _290
REMARK  124  A    between atoms: _290  and  _291
REMARK  125  A    between atoms: _290  and  _293
REMARK  126  A    between atoms: _293  and  _294
REMARK  127  A    between atoms: _294  and  _295
REMARK  128  A    between atoms: _300  and  _302
REMARK  129  A    between atoms: _302  and  _303
REMARK  130  A    between atoms: _302  and  _305
REMARK  131  A    between atoms: _305  and  _306
REMARK  132  A    between atoms: _306  and  _307
REMARK  133  A    between atoms: _307  and  _308
REMARK  134  A    between atoms: _308  and  _309
REMARK  135  A    between atoms: _314  and  _315
REMARK  136  A    between atoms: _320  and  _322
REMARK  137  A    between atoms: _322  and  _323
REMARK  138  A    between atoms: _325  and  _327
REMARK  139  A    between atoms: _327  and  _328
REMARK  140  A    between atoms: _327  and  _330
REMARK  141  A    between atoms: _333  and  _335
REMARK  142  A    between atoms: _335  and  _336
REMARK  143  A    between atoms: _335  and  _338
REMARK  144  A    between atoms: _338  and  _339
REMARK  145  A    between atoms: _344  and  _345
REMARK                            x       y       z     vdW  Elec       q    Type
REMARK                         _______ _______ _______ _____ _____    ______ ____
ROOT
ATOM      1  O   HOH     1      38.661   0.988  32.844  0.00  0.00    +0.000 OA
ENDROOT
TORSDOF 0
REMARK  Name = ../refined-set-2016/1gi4/1gi4_pocket.pdb
REMARK  145 active torsions:
REMARK  status: ('A' for Active; 'I' for Inactive)
REMARK    1  A    between atoms: _1  and  _5
REMARK    2  A    between atoms: _5  and  _6
REMARK    3  A    between atoms: _5  and  _8
REMARK    4  A    between atoms: _8  and  _9
REMARK    5  A    between atoms: _12  and  _14
REMARK    6  A    between atoms: _14  and  _15
REMARK    7  A    between atoms: _14  and  _17
REMARK    8  A    between atoms: _20  and  _22
REMARK    9  A    between atoms: _22  and  _23
REMARK   10  A    between atoms: _22  and  _25
REMARK   11  A    between atoms: _25  and  _26
REMARK   12  A    between atoms: _32  and  _34
REMARK   13  A    between atoms: _34  and  _35
REMARK   14  A    between atoms: _34  and  _37
REMARK   15  A    between atoms: _37  and  _38
REMARK   16  A    between atoms: _38  and  _62
REMARK   17  A    between atoms: _39  and  _41
REMARK   18  A    between atoms: _41  and  _42
REMARK   19  A    between atoms: _45  and  _47
REMARK   20  A    between atoms: _47  and  _48
REMARK   21  A    between atoms: _47  and  _50
REMARK   22  A    between atoms: _50  and  _51
REMARK   23  A    between atoms: _56  and  _58
REMARK   24  A    between atoms: _58  and  _59
REMARK   25  A    between atoms: _58  and  _61
REMARK   26  A    between atoms: _61  and  _62
REMARK   27  A    between atoms: _63  and  _65
REMARK   28  A    between atoms: _65  and  _66
REMARK   29  A    between atoms: _65  and  _68
REMARK   30  A    between atoms: _68  and  _69
REMARK   31  A    between atoms: _72  and  _74
REMARK   32  A    between atoms: _74  and  _75
REMARK   33  A    between atoms: _74  and  _77
REMARK   34  A    between atoms: _77  and  _78
REMARK   35  A    between atoms: _81  and  _83
REMARK   36  A    between atoms: _83  and  _84
REMARK   37  A    between atoms: _83  and  _86
REMARK   38  A    between atoms: _86  and  _87
REMARK   39  A    between atoms: _90  and  _92
REMARK   40  A    between atoms: _92  and  _93
REMARK   41  A    between atoms: _92  and  _95
REMARK   42  A    between atoms: _95  and  _96
REMARK   43  A    between atoms: _101  and  _103
REMARK   44  A    between atoms: _103  and  _104
REMARK   45  A    between atoms: _103  and  _106
REMARK   46  A    between atoms: _106  and  _107
REMARK   47  A    between atoms: _112  and  _113
REMARK   48  A    between atoms: _115  and  _117
REMARK   49  A    between atoms: _117  and  _118
REMARK   50  A    between atoms: _117  and  _120
REMARK   51  A    between atoms: _120  and  _121
REMARK   52  A    between atoms: _126  and  _127
REMARK   53  A    between atoms: _129  and  _131
REMARK   54  A    between atoms: _131  and  _132
REMARK   55  A    between atoms: _135  and  _137
REMARK   56  A    between atoms: _137  and  _138
REMARK   57  A    between atoms: _137  and  _140
REMARK   58  A    between atoms: _140  and  _141
REMARK   59  A    between atoms: _141  and  _142
REMARK   60  A    between atoms: _142  and  _143
REMARK   61  A    between atoms: _143  and  _144
REMARK   62  A    between atoms: _148  and  _150
REMARK   63  A    between atoms: _150  and  _151
REMARK   64  A    between atoms: _150  and  _153
REMARK   65  A    between atoms: _153  and  _154
REMARK   66  A    between atoms: _157  and  _159
REMARK   67  A    between atoms: _159  and  _160
REMARK   68  A    between atoms: _159  and  _162
REMARK   69  A    between atoms: _162  and  _163
REMARK   70  A    between atoms: _165  and  _167
REMARK   71  A    between atoms: _167  and  _168
REMARK   72  A    between atoms: _167  and  _170
REMARK   73  A    between atoms: _170  and  _171
REMARK   74  A    between atoms: _171  and  _281
REMARK   75  A    between atoms: _172  and  _174
REMARK   76  A    between atoms: _174  and  _175
REMARK   77  A    between atoms: _174  and  _177
REMARK   78  A    between atoms: _177  and  _178
REMARK   79  A    between atoms: _178  and  _179
REMARK   80  A    between atoms: _184  and  _186
REMARK   81  A    between atoms: _186  and  _187
REMARK   82  A    between atoms: _189  and  _191
REMARK   83  A    between atoms: _191  and  _192
REMARK   84  A    between atoms: _191  and  _194
REMARK   85  A    between atoms: _194  and  _195
REMARK   86  A    between atoms: _198  and  _200
REMARK   87  A    between atoms: _200  and  _201
REMARK   88  A    between atoms: _200  and  _203
REMARK   89  A    between atoms: _203  and  _204
REMARK   90  A    between atoms: _206  and  _208
REMARK   91  A    between atoms: _208  and  _209
REMARK   92  A    between atoms: _211  and  _213
REMARK   93  A    between atoms: _213  and  _214
REMARK   94  A    between atoms: _216  and  _218
REMARK   95  A    between atoms: _218  and  _219
REMARK   96  A    between atoms: _218  and  _221
REMARK   97  A    between atoms: _221  and  _222
REMARK   98  A    between atoms: _225  and  _227
REMARK   99  A    between atoms: _227  and  _228
REMARK  100  A    between atoms: _227  and  _230
REMARK  101  A    between atoms: _233  and  _235
REMARK  102  A    between atoms: _235  and  _236
REMARK  103  A    between atoms: _235  and  _238
REMARK  104  A    between atoms: _238  and  _239
REMARK  105  A    between atoms: _241  and  _243
REMARK  106  A    between atoms: _243  and  _244
REMARK  107  A    between atoms: _243  and  _246
REMARK  108  A    between atoms: _246  and  _247
REMARK  109  A    between atoms: _257  and  _259
REMARK  110  A    between atoms: _259  and  _260
REMARK  111  A    between atoms: _262  and  _264
REMARK  112  A    between atoms: _264  and  _265
REMARK  113  A    between atoms: _264  and  _267
REMARK  114  A    between atoms: _267  and  _268
REMARK  115  A    between atoms: _270  and  _272
REMARK  116  A    between atoms: _272  and  _273
REMARK  117  A    between atoms: _275  and  _277
REMARK  118  A    between atoms: _277  and  _278
REMARK  119  A    between atoms: _277  and  _280
REMARK  120  A    between atoms: _280  and  _281
REMARK  121  A    between atoms: _282  and  _284
REMARK  122  A    between atoms: _284  and  _285
REMARK  123  A    between atoms: _288  and  _290
REMARK  124  A    between atoms: _290  and  _291
REMARK  125  A    between atoms: _290  and  _293
REMARK  126  A    between atoms: _293  and  _294
REMARK  127  A    between atoms: _294  and  _295
REMARK  128  A    between atoms: _300  and  _302
REMARK  129  A    between atoms: _302  and  _303
REMARK  130  A    between atoms: _302  and  _305
REMARK  131  A    between atoms: _305  and  _306
REMARK  132  A    between atoms: _306  and  _307
REMARK  133  A    between atoms: _307  and  _308
REMARK  134  A    between atoms: _308  and  _309
REMARK  135  A    between atoms: _314  and  _315
REMARK  136  A    between atoms: _320  and  _322
REMARK  137  A    between atoms: _322  and  _323
REMARK  138  A    between atoms: _325  and  _327
REMARK  139  A    between atoms: _327  and  _328
REMARK  140  A    between atoms: _327  and  _330
REMARK  141  A    between atoms: _333  and  _335
REMARK  142  A    between atoms: _335  and  _336
REMARK  143  A    between atoms: _335  and  _338
REMARK  144  A    between atoms: _338  and  _339
REMARK  145  A    between atoms: _344  and  _345
REMARK                            x       y       z     vdW  Elec       q    Type
REMARK                         _______ _______ _______ _____ _____    ______ ____
ROOT
ATOM      1  O   HOH     1      39.505  -6.797  29.806  0.00  0.00    +0.000 OA
ENDROOT
TORSDOF 0
REMARK  Name = ../refined-set-2016/1gi4/1gi4_pocket.pdb
REMARK  145 active torsions:
REMARK  status: ('A' for Active; 'I' for Inactive)
REMARK    1  A    between atoms: _1  and  _5
REMARK    2  A    between atoms: _5  and  _6
REMARK    3  A    between atoms: _5  and  _8
REMARK    4  A    between atoms: _8  and  _9
REMARK    5  A    between atoms: _12  and  _14
REMARK    6  A    between atoms: _14  and  _15
REMARK    7  A    between atoms: _14  and  _17
REMARK    8  A    between atoms: _20  and  _22
REMARK    9  A    between atoms: _22  and  _23
REMARK   10  A    between atoms: _22  and  _25
REMARK   11  A    between atoms: _25  and  _26
REMARK   12  A    between atoms: _32  and  _34
REMARK   13  A    between atoms: _34  and  _35
REMARK   14  A    between atoms: _34  and  _37
REMARK   15  A    between atoms: _37  and  _38
REMARK   16  A    between atoms: _38  and  _62
REMARK   17  A    between atoms: _39  and  _41
REMARK   18  A    between atoms: _41  and  _42
REMARK   19  A    between atoms: _45  and  _47
REMARK   20  A    between atoms: _47  and  _48
REMARK   21  A    between atoms: _47  and  _50
REMARK   22  A    between atoms: _50  and  _51
REMARK   23  A    between atoms: _56  and  _58
REMARK   24  A    between atoms: _58  and  _59
REMARK   25  A    between atoms: _58  and  _61
REMARK   26  A    between atoms: _61  and  _62
REMARK   27  A    between atoms: _63  and  _65
REMARK   28  A    between atoms: _65  and  _66
REMARK   29  A    between atoms: _65  and  _68
REMARK   30  A    between atoms: _68  and  _69
REMARK   31  A    between atoms: _72  and  _74
REMARK   32  A    between atoms: _74  and  _75
REMARK   33  A    between atoms: _74  and  _77
REMARK   34  A    between atoms: _77  and  _78
REMARK   35  A    between atoms: _81  and  _83
REMARK   36  A    between atoms: _83  and  _84
REMARK   37  A    between atoms: _83  and  _86
REMARK   38  A    between atoms: _86  and  _87
REMARK   39  A    between atoms: _90  and  _92
REMARK   40  A    between atoms: _92  and  _93
REMARK   41  A    between atoms: _92  and  _95
REMARK   42  A    between atoms: _95  and  _96
REMARK   43  A    between atoms: _101  and  _103
REMARK   44  A    between atoms: _103  and  _104
REMARK   45  A    between atoms: _103  and  _106
REMARK   46  A    between atoms: _106  and  _107
REMARK   47  A    between atoms: _112  and  _113
REMARK   48  A    between atoms: _115  and  _117
REMARK   49  A    between atoms: _117  and  _118
REMARK   50  A    between atoms: _117  and  _120
REMARK   51  A    between atoms: _120  and  _121
REMARK   52  A    between atoms: _126  and  _127
REMARK   53  A    between atoms: _129  and  _131
REMARK   54  A    between atoms: _131  and  _132
REMARK   55  A    between atoms: _135  and  _137
REMARK   56  A    between atoms: _137  and  _138
REMARK   57  A    between atoms: _137  and  _140
REMARK   58  A    between atoms: _140  and  _141
REMARK   59  A    between atoms: _141  and  _142
REMARK   60  A    between atoms: _142  and  _143
REMARK   61  A    between atoms: _143  and  _144
REMARK   62  A    between atoms: _148  and  _150
REMARK   63  A    between atoms: _150  and  _151
REMARK   64  A    between atoms: _150  and  _153
REMARK   65  A    between atoms: _153  and  _154
REMARK   66  A    between atoms: _157  and  _159
REMARK   67  A    between atoms: _159  and  _160
REMARK   68  A    between atoms: _159  and  _162
REMARK   69  A    between atoms: _162  and  _163
REMARK   70  A    between atoms: _165  and  _167
REMARK   71  A    between atoms: _167  and  _168
REMARK   72  A    between atoms: _167  and  _170
REMARK   73  A    between atoms: _170  and  _171
REMARK   74  A    between atoms: _171  and  _281
REMARK   75  A    between atoms: _172  and  _174
REMARK   76  A    between atoms: _174  and  _175
REMARK   77  A    between atoms: _174  and  _177
REMARK   78  A    between atoms: _177  and  _178
REMARK   79  A    between atoms: _178  and  _179
REMARK   80  A    between atoms: _184  and  _186
REMARK   81  A    between atoms: _186  and  _187
REMARK   82  A    between atoms: _189  and  _191
REMARK   83  A    between atoms: _191  and  _192
REMARK   84  A    between atoms: _191  and  _194
REMARK   85  A    between atoms: _194  and  _195
REMARK   86  A    between atoms: _198  and  _200
REMARK   87  A    between atoms: _200  and  _201
REMARK   88  A    between atoms: _200  and  _203
REMARK   89  A    between atoms: _203  and  _204
REMARK   90  A    between atoms: _206  and  _208
REMARK   91  A    between atoms: _208  and  _209
REMARK   92  A    between atoms: _211  and  _213
REMARK   93  A    between atoms: _213  and  _214
REMARK   94  A    between atoms: _216  and  _218
REMARK   95  A    between atoms: _218  and  _219
REMARK   96  A    between atoms: _218  and  _221
REMARK   97  A    between atoms: _221  and  _222
REMARK   98  A    between atoms: _225  and  _227
REMARK   99  A    between atoms: _227  and  _228
REMARK  100  A    between atoms: _227  and  _230
REMARK  101  A    between atoms: _233  and  _235
REMARK  102  A    between atoms: _235  and  _236
REMARK  103  A    between atoms: _235  and  _238
REMARK  104  A    between atoms: _238  and  _239
REMARK  105  A    between atoms: _241  and  _243
REMARK  106  A    between atoms: _243  and  _244
REMARK  107  A    between atoms: _243  and  _246
REMARK  108  A    between atoms: _246  and  _247
REMARK  109  A    between atoms: _257  and  _259
REMARK  110  A    between atoms: _259  and  _260
REMARK  111  A    between atoms: _262  and  _264
REMARK  112  A    between atoms: _264  and  _265
REMARK  113  A    between atoms: _264  and  _267
REMARK  114  A    between atoms: _267  and  _268
REMARK  115  A    between atoms: _270  and  _272
REMARK  116  A    between atoms: _272  and  _273
REMARK  117  A    between atoms: _275  and  _277
REMARK  118  A    between atoms: _277  and  _278
REMARK  119  A    between atoms: _277  and  _280
REMARK  120  A    between atoms: _280  and  _281
REMARK  121  A    between atoms: _282  and  _284
REMARK  122  A    between atoms: _284  and  _285
REMARK  123  A    between atoms: _288  and  _290
REMARK  124  A    between atoms: _290  and  _291
REMARK  125  A    between atoms: _290  and  _293
REMARK  126  A    between atoms: _293  and  _294
REMARK  127  A    between atoms: _294  and  _295
REMARK  128  A    between atoms: _300  and  _302
REMARK  129  A    between atoms: _302  and  _303
REMARK  130  A    between atoms: _302  and  _305
REMARK  131  A    between atoms: _305  and  _306
REMARK  132  A    between atoms: _306  and  _307
REMARK  133  A    between atoms: _307  and  _308
REMARK  134  A    between atoms: _308  and  _309
REMARK  135  A    between atoms: _314  and  _315
REMARK  136  A    between atoms: _320  and  _322
REMARK  137  A    between atoms: _322  and  _323
REMARK  138  A    between atoms: _325  and  _327
REMARK  139  A    between atoms: _327  and  _328
REMARK  140  A    between atoms: _327  and  _330
REMARK  141  A    between atoms: _333  and  _335
REMARK  142  A    between atoms: _335  and  _336
REMARK  143  A    between atoms: _335  and  _338
REMARK  144  A    between atoms: _338  and  _339
REMARK  145  A    between atoms: _344  and  _345
REMARK                            x       y       z     vdW  Elec       q    Type
REMARK                         _______ _______ _______ _____ _____    ______ ____
ROOT
ATOM      1  O   HOH     1      34.114   0.211  32.601  0.00  0.00    +0.000 OA
ENDROOT
TORSDOF 0
