REMARK  Name = ../refined-set-2016/1ucn/1ucn_pocket.pdb
REMARK  150 active torsions:
REMARK  status: ('A' for Active; 'I' for Inactive)
REMARK    1  A    between atoms: _1  and  _3
REMARK    2  A    between atoms: _3  and  _4
REMARK    3  A    between atoms: _3  and  _6
REMARK    4  A    between atoms: _6  and  _7
REMARK    5  A    between atoms: _7  and  _8
REMARK    6  A    between atoms: _8  and  _9
REMARK    7  A    between atoms: _9  and  _10
REMARK    8  A    between atoms: _14  and  _16
REMARK    9  A    between atoms: _16  and  _17
REMARK   10  A    between atoms: _16  and  _19
REMARK   11  A    between atoms: _19  and  _20
REMARK   12  A    between atoms: _23  and  _25
REMARK   13  A    between atoms: _25  and  _26
REMARK   14  A    between atoms: _25  and  _28
REMARK   15  A    between atoms: _28  and  _29
REMARK   16  A    between atoms: _34  and  _36
REMARK   17  A    between atoms: _36  and  _37
REMARK   18  A    between atoms: _36  and  _39
REMARK   19  A    between atoms: _39  and  _40
REMARK   20  A    between atoms: _45  and  _46
REMARK   21  A    between atoms: _48  and  _50
REMARK   22  A    between atoms: _50  and  _51
REMARK   23  A    between atoms: _50  and  _53
REMARK   24  A    between atoms: _53  and  _54
REMARK   25  A    between atoms: _57  and  _59
REMARK   26  A    between atoms: _59  and  _60
REMARK   27  A    between atoms: _59  and  _62
REMARK   28  A    between atoms: _62  and  _63
REMARK   29  A    between atoms: _66  and  _68
REMARK   30  A    between atoms: _68  and  _69
REMARK   31  A    between atoms: _68  and  _71
REMARK   32  A    between atoms: _71  and  _72
REMARK   33  A    between atoms: _72  and  _73
REMARK   34  A    between atoms: _73  and  _74
REMARK   35  A    between atoms: _84  and  _85
REMARK   36  A    between atoms: _90  and  _92
REMARK   37  A    between atoms: _92  and  _93
REMARK   38  A    between atoms: _92  and  _95
REMARK   39  A    between atoms: _95  and  _96
REMARK   40  A    between atoms: _106  and  _108
REMARK   41  A    between atoms: _108  and  _109
REMARK   42  A    between atoms: _108  and  _111
REMARK   43  A    between atoms: _111  and  _112
REMARK   44  A    between atoms: _118  and  _120
REMARK   45  A    between atoms: _120  and  _121
REMARK   46  A    between atoms: _123  and  _125
REMARK   47  A    between atoms: _125  and  _126
REMARK   48  A    between atoms: _125  and  _128
REMARK   49  A    between atoms: _128  and  _129
REMARK   50  A    between atoms: _132  and  _134
REMARK   51  A    between atoms: _134  and  _135
REMARK   52  A    between atoms: _134  and  _137
REMARK   53  A    between atoms: _140  and  _142
REMARK   54  A    between atoms: _142  and  _143
REMARK   55  A    between atoms: _142  and  _145
REMARK   56  A    between atoms: _145  and  _146
REMARK   57  A    between atoms: _151  and  _152
REMARK   58  A    between atoms: _154  and  _156
REMARK   59  A    between atoms: _156  and  _157
REMARK   60  A    between atoms: _156  and  _159
REMARK   61  A    between atoms: _159  and  _160
REMARK   62  A    between atoms: _160  and  _161
REMARK   63  A    between atoms: _163  and  _165
REMARK   64  A    between atoms: _165  and  _166
REMARK   65  A    between atoms: _165  and  _168
REMARK   66  A    between atoms: _168  and  _169
REMARK   67  A    between atoms: _169  and  _170
REMARK   68  A    between atoms: _170  and  _171
REMARK   69  A    between atoms: _180  and  _182
REMARK   70  A    between atoms: _182  and  _183
REMARK   71  A    between atoms: _182  and  _185
REMARK   72  A    between atoms: _185  and  _186
REMARK   73  A    between atoms: _189  and  _191
REMARK   74  A    between atoms: _191  and  _192
REMARK   75  A    between atoms: _194  and  _196
REMARK   76  A    between atoms: _196  and  _197
REMARK   77  A    between atoms: _196  and  _199
REMARK   78  A    between atoms: _199  and  _200
REMARK   79  A    between atoms: _200  and  _201
REMARK   80  A    between atoms: _204  and  _206
REMARK   81  A    between atoms: _206  and  _207
REMARK   82  A    between atoms: _206  and  _209
REMARK   83  A    between atoms: _209  and  _210
REMARK   84  A    between atoms: _213  and  _215
REMARK   85  A    between atoms: _215  and  _216
REMARK   86  A    between atoms: _215  and  _218
REMARK   87  A    between atoms: _218  and  _219
REMARK   88  A    between atoms: _225  and  _226
REMARK   89  A    between atoms: _231  and  _233
REMARK   90  A    between atoms: _233  and  _234
REMARK   91  A    between atoms: _233  and  _236
REMARK   92  A    between atoms: _236  and  _237
REMARK   93  A    between atoms: _239  and  _241
REMARK   94  A    between atoms: _241  and  _242
REMARK   95  A    between atoms: _241  and  _244
REMARK   96  A    between atoms: _244  and  _245
REMARK   97  A    between atoms: _245  and  _246
REMARK   98  A    between atoms: _246  and  _247
REMARK   99  A    between atoms: _256  and  _258
REMARK  100  A    between atoms: _258  and  _259
REMARK  101  A    between atoms: _258  and  _261
REMARK  102  A    between atoms: _261  and  _262
REMARK  103  A    between atoms: _262  and  _263
REMARK  104  A    between atoms: _268  and  _270
REMARK  105  A    between atoms: _270  and  _271
REMARK  106  A    between atoms: _270  and  _273
REMARK  107  A    between atoms: _276  and  _278
REMARK  108  A    between atoms: _278  and  _279
REMARK  109  A    between atoms: _281  and  _283
REMARK  110  A    between atoms: _283  and  _284
REMARK  111  A    between atoms: _283  and  _286
REMARK  112  A    between atoms: _286  and  _287
REMARK  113  A    between atoms: _287  and  _288
REMARK  114  A    between atoms: _288  and  _289
REMARK  115  A    between atoms: _298  and  _300
REMARK  116  A    between atoms: _300  and  _301
REMARK  117  A    between atoms: _300  and  _303
REMARK  118  A    between atoms: _303  and  _304
REMARK  119  A    between atoms: _309  and  _311
REMARK  120  A    between atoms: _311  and  _312
REMARK  121  A    between atoms: _311  and  _314
REMARK  122  A    between atoms: _314  and  _315
REMARK  123  A    between atoms: _318  and  _320
REMARK  124  A    between atoms: _320  and  _321
REMARK  125  A    between atoms: _320  and  _323
REMARK  126  A    between atoms: _323  and  _324
REMARK  127  A    between atoms: _327  and  _329
REMARK  128  A    between atoms: _329  and  _330
REMARK  129  A    between atoms: _332  and  _334
REMARK  130  A    between atoms: _334  and  _335
REMARK  131  A    between atoms: _337  and  _339
REMARK  132  A    between atoms: _339  and  _340
REMARK  133  A    between atoms: _339  and  _342
REMARK  134  A    between atoms: _342  and  _343
REMARK  135  A    between atoms: _345  and  _347
REMARK  136  A    between atoms: _347  and  _348
REMARK  137  A    between atoms: _347  and  _350
REMARK  138  A    between atoms: _350  and  _351
REMARK  139  A    between atoms: _351  and  _353
REMARK  140  A    between atoms: _353  and  CA_375
REMARK  141  A    between atoms: _354  and  _356
REMARK  142  A    between atoms: _356  and  _357
REMARK  143  A    between atoms: _356  and  _359
REMARK  144  A    between atoms: _359  and  _360
REMARK  145  A    between atoms: _360  and  _361
REMARK  146  A    between atoms: _364  and  _366
REMARK  147  A    between atoms: _366  and  _367
REMARK  148  A    between atoms: _366  and  _369
REMARK  149  A    between atoms: _369  and  _370
REMARK  150  A    between atoms: _370  and  _371
REMARK                            x       y       z     vdW  Elec       q    Type
REMARK                         _______ _______ _______ _____ _____    ______ ____
ROOT
ATOM      1  CG  LYS A   1      -6.120 101.403  23.599  0.00  0.00    -0.000 C 
ENDROOT
BRANCH   1   2
ATOM      2  CB  LYS A   1      -5.569 101.637  24.992  0.00  0.00    +0.025 C 
BRANCH   2   3
ATOM      3  CA  LYS A   1      -4.990 103.037  25.168  0.00  0.00    +0.133 C 
BRANCH   3   4
ATOM      4  N   LYS A   1      -3.983 103.270  24.145  0.00  0.00    -0.239 NA
ATOM      5  H   LYS A   1      -3.785 102.520  23.452  0.00  0.00    +0.142 HD
ENDBRANCH   3   4
BRANCH   3   6
ATOM      6  C   LYS A   1      -4.433 103.229  26.578  0.00  0.00    +0.224 C 
ATOM      7  O   LYS A   1      -3.215 103.304  26.766  0.00  0.00    -0.287 OA
ENDBRANCH   3   6
ENDBRANCH   2   3
ENDBRANCH   1   2
BRANCH   1   8
ATOM      8  CD  LYS A   1      -6.956 100.145  23.542  0.00  0.00    -0.024 C 
BRANCH   8   9
ATOM      9  CE  LYS A   1      -7.645 100.003  22.195  0.00  0.00    -0.086 C 
BRANCH   9  10
ATOM     10  NZ  LYS A   1      -8.429  98.737  22.114  0.00  0.00    +0.380 N 
ATOM     11  HZ1 LYS A   1      -9.155  98.732  22.858  0.00  0.00    -0.089 HD
ATOM     12  HZ2 LYS A   1      -7.791  97.926  22.245  0.00  0.00    -0.089 HD
ATOM     13  HZ3 LYS A   1      -8.886  98.673  21.182  0.00  0.00    -0.089 HD
ENDBRANCH   9  10
ENDBRANCH   8   9
ENDBRANCH   1   8
TORSDOF 7
REMARK  Name = ../refined-set-2016/1ucn/1ucn_pocket.pdb
REMARK  150 active torsions:
REMARK  status: ('A' for Active; 'I' for Inactive)
REMARK    1  A    between atoms: _1  and  _3
REMARK    2  A    between atoms: _3  and  _4
REMARK    3  A    between atoms: _3  and  _6
REMARK    4  A    between atoms: _6  and  _7
REMARK    5  A    between atoms: _7  and  _8
REMARK    6  A    between atoms: _8  and  _9
REMARK    7  A    between atoms: _9  and  _10
REMARK    8  A    between atoms: _14  and  _16
REMARK    9  A    between atoms: _16  and  _17
REMARK   10  A    between atoms: _16  and  _19
REMARK   11  A    between atoms: _19  and  _20
REMARK   12  A    between atoms: _23  and  _25
REMARK   13  A    between atoms: _25  and  _26
REMARK   14  A    between atoms: _25  and  _28
REMARK   15  A    between atoms: _28  and  _29
REMARK   16  A    between atoms: _34  and  _36
REMARK   17  A    between atoms: _36  and  _37
REMARK   18  A    between atoms: _36  and  _39
REMARK   19  A    between atoms: _39  and  _40
REMARK   20  A    between atoms: _45  and  _46
REMARK   21  A    between atoms: _48  and  _50
REMARK   22  A    between atoms: _50  and  _51
REMARK   23  A    between atoms: _50  and  _53
REMARK   24  A    between atoms: _53  and  _54
REMARK   25  A    between atoms: _57  and  _59
REMARK   26  A    between atoms: _59  and  _60
REMARK   27  A    between atoms: _59  and  _62
REMARK   28  A    between atoms: _62  and  _63
REMARK   29  A    between atoms: _66  and  _68
REMARK   30  A    between atoms: _68  and  _69
REMARK   31  A    between atoms: _68  and  _71
REMARK   32  A    between atoms: _71  and  _72
REMARK   33  A    between atoms: _72  and  _73
REMARK   34  A    between atoms: _73  and  _74
REMARK   35  A    between atoms: _84  and  _85
REMARK   36  A    between atoms: _90  and  _92
REMARK   37  A    between atoms: _92  and  _93
REMARK   38  A    between atoms: _92  and  _95
REMARK   39  A    between atoms: _95  and  _96
REMARK   40  A    between atoms: _106  and  _108
REMARK   41  A    between atoms: _108  and  _109
REMARK   42  A    between atoms: _108  and  _111
REMARK   43  A    between atoms: _111  and  _112
REMARK   44  A    between atoms: _118  and  _120
REMARK   45  A    between atoms: _120  and  _121
REMARK   46  A    between atoms: _123  and  _125
REMARK   47  A    between atoms: _125  and  _126
REMARK   48  A    between atoms: _125  and  _128
REMARK   49  A    between atoms: _128  and  _129
REMARK   50  A    between atoms: _132  and  _134
REMARK   51  A    between atoms: _134  and  _135
REMARK   52  A    between atoms: _134  and  _137
REMARK   53  A    between atoms: _140  and  _142
REMARK   54  A    between atoms: _142  and  _143
REMARK   55  A    between atoms: _142  and  _145
REMARK   56  A    between atoms: _145  and  _146
REMARK   57  A    between atoms: _151  and  _152
REMARK   58  A    between atoms: _154  and  _156
REMARK   59  A    between atoms: _156  and  _157
REMARK   60  A    between atoms: _156  and  _159
REMARK   61  A    between atoms: _159  and  _160
REMARK   62  A    between atoms: _160  and  _161
REMARK   63  A    between atoms: _163  and  _165
REMARK   64  A    between atoms: _165  and  _166
REMARK   65  A    between atoms: _165  and  _168
REMARK   66  A    between atoms: _168  and  _169
REMARK   67  A    between atoms: _169  and  _170
REMARK   68  A    between atoms: _170  and  _171
REMARK   69  A    between atoms: _180  and  _182
REMARK   70  A    between atoms: _182  and  _183
REMARK   71  A    between atoms: _182  and  _185
REMARK   72  A    between atoms: _185  and  _186
REMARK   73  A    between atoms: _189  and  _191
REMARK   74  A    between atoms: _191  and  _192
REMARK   75  A    between atoms: _194  and  _196
REMARK   76  A    between atoms: _196  and  _197
REMARK   77  A    between atoms: _196  and  _199
REMARK   78  A    between atoms: _199  and  _200
REMARK   79  A    between atoms: _200  and  _201
REMARK   80  A    between atoms: _204  and  _206
REMARK   81  A    between atoms: _206  and  _207
REMARK   82  A    between atoms: _206  and  _209
REMARK   83  A    between atoms: _209  and  _210
REMARK   84  A    between atoms: _213  and  _215
REMARK   85  A    between atoms: _215  and  _216
REMARK   86  A    between atoms: _215  and  _218
REMARK   87  A    between atoms: _218  and  _219
REMARK   88  A    between atoms: _225  and  _226
REMARK   89  A    between atoms: _231  and  _233
REMARK   90  A    between atoms: _233  and  _234
REMARK   91  A    between atoms: _233  and  _236
REMARK   92  A    between atoms: _236  and  _237
REMARK   93  A    between atoms: _239  and  _241
REMARK   94  A    between atoms: _241  and  _242
REMARK   95  A    between atoms: _241  and  _244
REMARK   96  A    between atoms: _244  and  _245
REMARK   97  A    between atoms: _245  and  _246
REMARK   98  A    between atoms: _246  and  _247
REMARK   99  A    between atoms: _256  and  _258
REMARK  100  A    between atoms: _258  and  _259
REMARK  101  A    between atoms: _258  and  _261
REMARK  102  A    between atoms: _261  and  _262
REMARK  103  A    between atoms: _262  and  _263
REMARK  104  A    between atoms: _268  and  _270
REMARK  105  A    between atoms: _270  and  _271
REMARK  106  A    between atoms: _270  and  _273
REMARK  107  A    between atoms: _276  and  _278
REMARK  108  A    between atoms: _278  and  _279
REMARK  109  A    between atoms: _281  and  _283
REMARK  110  A    between atoms: _283  and  _284
REMARK  111  A    between atoms: _283  and  _286
REMARK  112  A    between atoms: _286  and  _287
REMARK  113  A    between atoms: _287  and  _288
REMARK  114  A    between atoms: _288  and  _289
REMARK  115  A    between atoms: _298  and  _300
REMARK  116  A    between atoms: _300  and  _301
REMARK  117  A    between atoms: _300  and  _303
REMARK  118  A    between atoms: _303  and  _304
REMARK  119  A    between atoms: _309  and  _311
REMARK  120  A    between atoms: _311  and  _312
REMARK  121  A    between atoms: _311  and  _314
REMARK  122  A    between atoms: _314  and  _315
REMARK  123  A    between atoms: _318  and  _320
REMARK  124  A    between atoms: _320  and  _321
REMARK  125  A    between atoms: _320  and  _323
REMARK  126  A    between atoms: _323  and  _324
REMARK  127  A    between atoms: _327  and  _329
REMARK  128  A    between atoms: _329  and  _330
REMARK  129  A    between atoms: _332  and  _334
REMARK  130  A    between atoms: _334  and  _335
REMARK  131  A    between atoms: _337  and  _339
REMARK  132  A    between atoms: _339  and  _340
REMARK  133  A    between atoms: _339  and  _342
REMARK  134  A    between atoms: _342  and  _343
REMARK  135  A    between atoms: _345  and  _347
REMARK  136  A    between atoms: _347  and  _348
REMARK  137  A    between atoms: _347  and  _350
REMARK  138  A    between atoms: _350  and  _351
REMARK  139  A    between atoms: _351  and  _353
REMARK  140  A    between atoms: _353  and  CA_375
REMARK  141  A    between atoms: _354  and  _356
REMARK  142  A    between atoms: _356  and  _357
REMARK  143  A    between atoms: _356  and  _359
REMARK  144  A    between atoms: _359  and  _360
REMARK  145  A    between atoms: _360  and  _361
REMARK  146  A    between atoms: _364  and  _366
REMARK  147  A    between atoms: _366  and  _367
REMARK  148  A    between atoms: _366  and  _369
REMARK  149  A    between atoms: _369  and  _370
REMARK  150  A    between atoms: _370  and  _371
REMARK                            x       y       z     vdW  Elec       q    Type
REMARK                         _______ _______ _______ _____ _____    ______ ____
ROOT
ATOM      1  CA  ASP A   1      -3.100 100.267  29.673  0.00  0.00    +0.144 C 
ENDROOT
BRANCH   1   2
ATOM      2  N   ASP A   1      -4.026 101.266  29.152  0.00  0.00    -0.239 NA
ATOM      3  H   ASP A   1      -4.731 100.998  28.436  0.00  0.00    +0.142 HD
ENDBRANCH   1   2
BRANCH   1   4
ATOM      4  C   ASP A   1      -1.711 100.514  29.090  0.00  0.00    +0.225 C 
ATOM      5  O   ASP A   1      -0.703 100.334  29.777  0.00  0.00    -0.287 OA
ENDBRANCH   1   4
BRANCH   1   6
ATOM      6  CB  ASP A   1      -3.592  98.843  29.359  0.00  0.00    +0.139 C 
BRANCH   6   7
ATOM      7  CG  ASP A   1      -4.170  98.714  27.966  0.00  0.00    +0.367 C 
ATOM      8  OD2 ASP A   1      -4.849  99.660  27.525  0.00  0.00    -0.246 OA
ATOM      9  OD1 ASP A   1      -3.966  97.661  27.318  0.00  0.00    -0.246 OA
ENDBRANCH   6   7
ENDBRANCH   1   6
TORSDOF 4
REMARK  Name = ../refined-set-2016/1ucn/1ucn_pocket.pdb
REMARK  150 active torsions:
REMARK  status: ('A' for Active; 'I' for Inactive)
REMARK    1  A    between atoms: _1  and  _3
REMARK    2  A    between atoms: _3  and  _4
REMARK    3  A    between atoms: _3  and  _6
REMARK    4  A    between atoms: _6  and  _7
REMARK    5  A    between atoms: _7  and  _8
REMARK    6  A    between atoms: _8  and  _9
REMARK    7  A    between atoms: _9  and  _10
REMARK    8  A    between atoms: _14  and  _16
REMARK    9  A    between atoms: _16  and  _17
REMARK   10  A    between atoms: _16  and  _19
REMARK   11  A    between atoms: _19  and  _20
REMARK   12  A    between atoms: _23  and  _25
REMARK   13  A    between atoms: _25  and  _26
REMARK   14  A    between atoms: _25  and  _28
REMARK   15  A    between atoms: _28  and  _29
REMARK   16  A    between atoms: _34  and  _36
REMARK   17  A    between atoms: _36  and  _37
REMARK   18  A    between atoms: _36  and  _39
REMARK   19  A    between atoms: _39  and  _40
REMARK   20  A    between atoms: _45  and  _46
REMARK   21  A    between atoms: _48  and  _50
REMARK   22  A    between atoms: _50  and  _51
REMARK   23  A    between atoms: _50  and  _53
REMARK   24  A    between atoms: _53  and  _54
REMARK   25  A    between atoms: _57  and  _59
REMARK   26  A    between atoms: _59  and  _60
REMARK   27  A    between atoms: _59  and  _62
REMARK   28  A    between atoms: _62  and  _63
REMARK   29  A    between atoms: _66  and  _68
REMARK   30  A    between atoms: _68  and  _69
REMARK   31  A    between atoms: _68  and  _71
REMARK   32  A    between atoms: _71  and  _72
REMARK   33  A    between atoms: _72  and  _73
REMARK   34  A    between atoms: _73  and  _74
REMARK   35  A    between atoms: _84  and  _85
REMARK   36  A    between atoms: _90  and  _92
REMARK   37  A    between atoms: _92  and  _93
REMARK   38  A    between atoms: _92  and  _95
REMARK   39  A    between atoms: _95  and  _96
REMARK   40  A    between atoms: _106  and  _108
REMARK   41  A    between atoms: _108  and  _109
REMARK   42  A    between atoms: _108  and  _111
REMARK   43  A    between atoms: _111  and  _112
REMARK   44  A    between atoms: _118  and  _120
REMARK   45  A    between atoms: _120  and  _121
REMARK   46  A    between atoms: _123  and  _125
REMARK   47  A    between atoms: _125  and  _126
REMARK   48  A    between atoms: _125  and  _128
REMARK   49  A    between atoms: _128  and  _129
REMARK   50  A    between atoms: _132  and  _134
REMARK   51  A    between atoms: _134  and  _135
REMARK   52  A    between atoms: _134  and  _137
REMARK   53  A    between atoms: _140  and  _142
REMARK   54  A    between atoms: _142  and  _143
REMARK   55  A    between atoms: _142  and  _145
REMARK   56  A    between atoms: _145  and  _146
REMARK   57  A    between atoms: _151  and  _152
REMARK   58  A    between atoms: _154  and  _156
REMARK   59  A    between atoms: _156  and  _157
REMARK   60  A    between atoms: _156  and  _159
REMARK   61  A    between atoms: _159  and  _160
REMARK   62  A    between atoms: _160  and  _161
REMARK   63  A    between atoms: _163  and  _165
REMARK   64  A    between atoms: _165  and  _166
REMARK   65  A    between atoms: _165  and  _168
REMARK   66  A    between atoms: _168  and  _169
REMARK   67  A    between atoms: _169  and  _170
REMARK   68  A    between atoms: _170  and  _171
REMARK   69  A    between atoms: _180  and  _182
REMARK   70  A    between atoms: _182  and  _183
REMARK   71  A    between atoms: _182  and  _185
REMARK   72  A    between atoms: _185  and  _186
REMARK   73  A    between atoms: _189  and  _191
REMARK   74  A    between atoms: _191  and  _192
REMARK   75  A    between atoms: _194  and  _196
REMARK   76  A    between atoms: _196  and  _197
REMARK   77  A    between atoms: _196  and  _199
REMARK   78  A    between atoms: _199  and  _200
REMARK   79  A    between atoms: _200  and  _201
REMARK   80  A    between atoms: _204  and  _206
REMARK   81  A    between atoms: _206  and  _207
REMARK   82  A    between atoms: _206  and  _209
REMARK   83  A    between atoms: _209  and  _210
REMARK   84  A    between atoms: _213  and  _215
REMARK   85  A    between atoms: _215  and  _216
REMARK   86  A    between atoms: _215  and  _218
REMARK   87  A    between atoms: _218  and  _219
REMARK   88  A    between atoms: _225  and  _226
REMARK   89  A    between atoms: _231  and  _233
REMARK   90  A    between atoms: _233  and  _234
REMARK   91  A    between atoms: _233  and  _236
REMARK   92  A    between atoms: _236  and  _237
REMARK   93  A    between atoms: _239  and  _241
REMARK   94  A    between atoms: _241  and  _242
REMARK   95  A    between atoms: _241  and  _244
REMARK   96  A    between atoms: _244  and  _245
REMARK   97  A    between atoms: _245  and  _246
REMARK   98  A    between atoms: _246  and  _247
REMARK   99  A    between atoms: _256  and  _258
REMARK  100  A    between atoms: _258  and  _259
REMARK  101  A    between atoms: _258  and  _261
REMARK  102  A    between atoms: _261  and  _262
REMARK  103  A    between atoms: _262  and  _263
REMARK  104  A    between atoms: _268  and  _270
REMARK  105  A    between atoms: _270  and  _271
REMARK  106  A    between atoms: _270  and  _273
REMARK  107  A    between atoms: _276  and  _278
REMARK  108  A    between atoms: _278  and  _279
REMARK  109  A    between atoms: _281  and  _283
REMARK  110  A    between atoms: _283  and  _284
REMARK  111  A    between atoms: _283  and  _286
REMARK  112  A    between atoms: _286  and  _287
REMARK  113  A    between atoms: _287  and  _288
REMARK  114  A    between atoms: _288  and  _289
REMARK  115  A    between atoms: _298  and  _300
REMARK  116  A    between atoms: _300  and  _301
REMARK  117  A    between atoms: _300  and  _303
REMARK  118  A    between atoms: _303  and  _304
REMARK  119  A    between atoms: _309  and  _311
REMARK  120  A    between atoms: _311  and  _312
REMARK  121  A    between atoms: _311  and  _314
REMARK  122  A    between atoms: _314  and  _315
REMARK  123  A    between atoms: _318  and  _320
REMARK  124  A    between atoms: _320  and  _321
REMARK  125  A    between atoms: _320  and  _323
REMARK  126  A    between atoms: _323  and  _324
REMARK  127  A    between atoms: _327  and  _329
REMARK  128  A    between atoms: _329  and  _330
REMARK  129  A    between atoms: _332  and  _334
REMARK  130  A    between atoms: _334  and  _335
REMARK  131  A    between atoms: _337  and  _339
REMARK  132  A    between atoms: _339  and  _340
REMARK  133  A    between atoms: _339  and  _342
REMARK  134  A    between atoms: _342  and  _343
REMARK  135  A    between atoms: _345  and  _347
REMARK  136  A    between atoms: _347  and  _348
REMARK  137  A    between atoms: _347  and  _350
REMARK  138  A    between atoms: _350  and  _351
REMARK  139  A    between atoms: _351  and  _353
REMARK  140  A    between atoms: _353  and  CA_375
REMARK  141  A    between atoms: _354  and  _356
REMARK  142  A    between atoms: _356  and  _357
REMARK  143  A    between atoms: _356  and  _359
REMARK  144  A    between atoms: _359  and  _360
REMARK  145  A    between atoms: _360  and  _361
REMARK  146  A    between atoms: _364  and  _366
REMARK  147  A    between atoms: _366  and  _367
REMARK  148  A    between atoms: _366  and  _369
REMARK  149  A    between atoms: _369  and  _370
REMARK  150  A    between atoms: _370  and  _371
REMARK                            x       y       z     vdW  Elec       q    Type
REMARK                         _______ _______ _______ _____ _____    ______ ____
ROOT
ATOM      1  C   HIS A   1     -15.669 105.355  17.325  0.00  0.00    +0.239 C 
ATOM      2  N   TYR A   2     -16.288 104.632  18.255  0.00  0.00    -0.298 N 
ATOM      3  H   TYR A   2     -16.585 105.097  19.137  0.00  0.00    +0.150 HD
ATOM      4  O   HIS A   1     -15.305 104.892  16.243  0.00  0.00    -0.274 OA
ENDROOT
BRANCH   1   5
ATOM      5  CA  HIS A   1     -15.436 106.826  17.662  0.00  0.00    +0.151 C 
BRANCH   5   6
ATOM      6  N   HIS A   1     -16.598 107.415  18.313  0.00  0.00    -0.238 NA
ATOM      7  H   HIS A   1     -16.501 107.807  19.271  0.00  0.00    +0.142 HD
ENDBRANCH   5   6
BRANCH   5   8
ATOM      8  CB  HIS A   1     -14.201 106.969  18.560  0.00  0.00    +0.074 C 
BRANCH   8   9
ATOM      9  CG  HIS A   1     -12.947 106.418  17.954  0.00  0.00    +0.082 A 
ATOM     10  ND1 HIS A   1     -12.712 105.064  17.831  0.00  0.00    -0.227 NA
ATOM     11  CE1 HIS A   1     -11.558 104.875  17.216  0.00  0.00    +0.199 A 
ATOM     12  NE2 HIS A   1     -11.035 106.055  16.939  0.00  0.00    -0.221 NA
ATOM     13  CD2 HIS A   1     -11.883 107.037  17.392  0.00  0.00    +0.115 A 
ENDBRANCH   8   9
ENDBRANCH   5   8
ENDBRANCH   1   5
BRANCH   2  14
ATOM     14  CA  TYR A   2     -16.566 103.205  18.081  0.00  0.00    +0.141 C 
BRANCH  14  15
ATOM     15  C   TYR A   2     -18.011 102.924  17.674  0.00  0.00    +0.227 C 
ATOM     16  O   TYR A   2     -18.606 101.952  18.144  0.00  0.00    -0.286 OA
ENDBRANCH  14  15
BRANCH  14  17
ATOM     17  CB  TYR A   2     -16.284 102.452  19.384  0.00  0.00    +0.054 C 
BRANCH  17  18
ATOM     18  CG  TYR A   2     -14.829 102.373  19.789  0.00  0.00    -0.020 A 
ATOM     19  CD2 TYR A   2     -14.393 102.945  20.981  0.00  0.00    -0.001 A 
ATOM     20  CE2 TYR A   2     -13.069 102.821  21.397  0.00  0.00    +0.036 A 
ATOM     21  CZ  TYR A   2     -12.169 102.117  20.614  0.00  0.00    +0.134 A 
ATOM     22  CE1 TYR A   2     -12.577 101.545  19.419  0.00  0.00    +0.036 A 
ATOM     23  CD1 TYR A   2     -13.902 101.677  19.013  0.00  0.00    -0.001 A 
BRANCH  21  24
ATOM     24  OH  TYR A   2     -10.870 101.971  21.048  0.00  0.00    -0.506 OA
ATOM     25  HH  TYR A   2     -10.358 101.448  20.382  0.00  0.00    +0.292 HD
ENDBRANCH  21  24
ENDBRANCH  17  18
ENDBRANCH  14  17
ENDBRANCH   2  14
TORSDOF 9
REMARK  Name = ../refined-set-2016/1ucn/1ucn_pocket.pdb
REMARK  150 active torsions:
REMARK  status: ('A' for Active; 'I' for Inactive)
REMARK    1  A    between atoms: _1  and  _3
REMARK    2  A    between atoms: _3  and  _4
REMARK    3  A    between atoms: _3  and  _6
REMARK    4  A    between atoms: _6  and  _7
REMARK    5  A    between atoms: _7  and  _8
REMARK    6  A    between atoms: _8  and  _9
REMARK    7  A    between atoms: _9  and  _10
REMARK    8  A    between atoms: _14  and  _16
REMARK    9  A    between atoms: _16  and  _17
REMARK   10  A    between atoms: _16  and  _19
REMARK   11  A    between atoms: _19  and  _20
REMARK   12  A    between atoms: _23  and  _25
REMARK   13  A    between atoms: _25  and  _26
REMARK   14  A    between atoms: _25  and  _28
REMARK   15  A    between atoms: _28  and  _29
REMARK   16  A    between atoms: _34  and  _36
REMARK   17  A    between atoms: _36  and  _37
REMARK   18  A    between atoms: _36  and  _39
REMARK   19  A    between atoms: _39  and  _40
REMARK   20  A    between atoms: _45  and  _46
REMARK   21  A    between atoms: _48  and  _50
REMARK   22  A    between atoms: _50  and  _51
REMARK   23  A    between atoms: _50  and  _53
REMARK   24  A    between atoms: _53  and  _54
REMARK   25  A    between atoms: _57  and  _59
REMARK   26  A    between atoms: _59  and  _60
REMARK   27  A    between atoms: _59  and  _62
REMARK   28  A    between atoms: _62  and  _63
REMARK   29  A    between atoms: _66  and  _68
REMARK   30  A    between atoms: _68  and  _69
REMARK   31  A    between atoms: _68  and  _71
REMARK   32  A    between atoms: _71  and  _72
REMARK   33  A    between atoms: _72  and  _73
REMARK   34  A    between atoms: _73  and  _74
REMARK   35  A    between atoms: _84  and  _85
REMARK   36  A    between atoms: _90  and  _92
REMARK   37  A    between atoms: _92  and  _93
REMARK   38  A    between atoms: _92  and  _95
REMARK   39  A    between atoms: _95  and  _96
REMARK   40  A    between atoms: _106  and  _108
REMARK   41  A    between atoms: _108  and  _109
REMARK   42  A    between atoms: _108  and  _111
REMARK   43  A    between atoms: _111  and  _112
REMARK   44  A    between atoms: _118  and  _120
REMARK   45  A    between atoms: _120  and  _121
REMARK   46  A    between atoms: _123  and  _125
REMARK   47  A    between atoms: _125  and  _126
REMARK   48  A    between atoms: _125  and  _128
REMARK   49  A    between atoms: _128  and  _129
REMARK   50  A    between atoms: _132  and  _134
REMARK   51  A    between atoms: _134  and  _135
REMARK   52  A    between atoms: _134  and  _137
REMARK   53  A    between atoms: _140  and  _142
REMARK   54  A    between atoms: _142  and  _143
REMARK   55  A    between atoms: _142  and  _145
REMARK   56  A    between atoms: _145  and  _146
REMARK   57  A    between atoms: _151  and  _152
REMARK   58  A    between atoms: _154  and  _156
REMARK   59  A    between atoms: _156  and  _157
REMARK   60  A    between atoms: _156  and  _159
REMARK   61  A    between atoms: _159  and  _160
REMARK   62  A    between atoms: _160  and  _161
REMARK   63  A    between atoms: _163  and  _165
REMARK   64  A    between atoms: _165  and  _166
REMARK   65  A    between atoms: _165  and  _168
REMARK   66  A    between atoms: _168  and  _169
REMARK   67  A    between atoms: _169  and  _170
REMARK   68  A    between atoms: _170  and  _171
REMARK   69  A    between atoms: _180  and  _182
REMARK   70  A    between atoms: _182  and  _183
REMARK   71  A    between atoms: _182  and  _185
REMARK   72  A    between atoms: _185  and  _186
REMARK   73  A    between atoms: _189  and  _191
REMARK   74  A    between atoms: _191  and  _192
REMARK   75  A    between atoms: _194  and  _196
REMARK   76  A    between atoms: _196  and  _197
REMARK   77  A    between atoms: _196  and  _199
REMARK   78  A    between atoms: _199  and  _200
REMARK   79  A    between atoms: _200  and  _201
REMARK   80  A    between atoms: _204  and  _206
REMARK   81  A    between atoms: _206  and  _207
REMARK   82  A    between atoms: _206  and  _209
REMARK   83  A    between atoms: _209  and  _210
REMARK   84  A    between atoms: _213  and  _215
REMARK   85  A    between atoms: _215  and  _216
REMARK   86  A    between atoms: _215  and  _218
REMARK   87  A    between atoms: _218  and  _219
REMARK   88  A    between atoms: _225  and  _226
REMARK   89  A    between atoms: _231  and  _233
REMARK   90  A    between atoms: _233  and  _234
REMARK   91  A    between atoms: _233  and  _236
REMARK   92  A    between atoms: _236  and  _237
REMARK   93  A    between atoms: _239  and  _241
REMARK   94  A    between atoms: _241  and  _242
REMARK   95  A    between atoms: _241  and  _244
REMARK   96  A    between atoms: _244  and  _245
REMARK   97  A    between atoms: _245  and  _246
REMARK   98  A    between atoms: _246  and  _247
REMARK   99  A    between atoms: _256  and  _258
REMARK  100  A    between atoms: _258  and  _259
REMARK  101  A    between atoms: _258  and  _261
REMARK  102  A    between atoms: _261  and  _262
REMARK  103  A    between atoms: _262  and  _263
REMARK  104  A    between atoms: _268  and  _270
REMARK  105  A    between atoms: _270  and  _271
REMARK  106  A    between atoms: _270  and  _273
REMARK  107  A    between atoms: _276  and  _278
REMARK  108  A    between atoms: _278  and  _279
REMARK  109  A    between atoms: _281  and  _283
REMARK  110  A    between atoms: _283  and  _284
REMARK  111  A    between atoms: _283  and  _286
REMARK  112  A    between atoms: _286  and  _287
REMARK  113  A    between atoms: _287  and  _288
REMARK  114  A    between atoms: _288  and  _289
REMARK  115  A    between atoms: _298  and  _300
REMARK  116  A    between atoms: _300  and  _301
REMARK  117  A    between atoms: _300  and  _303
REMARK  118  A    between atoms: _303  and  _304
REMARK  119  A    between atoms: _309  and  _311
REMARK  120  A    between atoms: _311  and  _312
REMARK  121  A    between atoms: _311  and  _314
REMARK  122  A    between atoms: _314  and  _315
REMARK  123  A    between atoms: _318  and  _320
REMARK  124  A    between atoms: _320  and  _321
REMARK  125  A    between atoms: _320  and  _323
REMARK  126  A    between atoms: _323  and  _324
REMARK  127  A    between atoms: _327  and  _329
REMARK  128  A    between atoms: _329  and  _330
REMARK  129  A    between atoms: _332  and  _334
REMARK  130  A    between atoms: _334  and  _335
REMARK  131  A    between atoms: _337  and  _339
REMARK  132  A    between atoms: _339  and  _340
REMARK  133  A    between atoms: _339  and  _342
REMARK  134  A    between atoms: _342  and  _343
REMARK  135  A    between atoms: _345  and  _347
REMARK  136  A    between atoms: _347  and  _348
REMARK  137  A    between atoms: _347  and  _350
REMARK  138  A    between atoms: _350  and  _351
REMARK  139  A    between atoms: _351  and  _353
REMARK  140  A    between atoms: _353  and  CA_375
REMARK  141  A    between atoms: _354  and  _356
REMARK  142  A    between atoms: _356  and  _357
REMARK  143  A    between atoms: _356  and  _359
REMARK  144  A    between atoms: _359  and  _360
REMARK  145  A    between atoms: _360  and  _361
REMARK  146  A    between atoms: _364  and  _366
REMARK  147  A    between atoms: _366  and  _367
REMARK  148  A    between atoms: _366  and  _369
REMARK  149  A    between atoms: _369  and  _370
REMARK  150  A    between atoms: _370  and  _371
REMARK                            x       y       z     vdW  Elec       q    Type
REMARK                         _______ _______ _______ _____ _____    ______ ____
ROOT
ATOM      1  C   ASP A   1     -19.657  99.305  15.046  0.00  0.00    +0.239 C 
ATOM      2  N   LEU A   2     -19.304  99.476  16.319  0.00  0.00    -0.298 N 
ATOM      3  H   LEU A   2     -18.986 100.415  16.633  0.00  0.00    +0.150 HD
ATOM      4  O   ASP A   1     -20.068  98.231  14.602  0.00  0.00    -0.274 OA
ENDROOT
BRANCH   1   5
ATOM      5  CA  ASP A   1     -19.539 100.524  14.129  0.00  0.00    +0.156 C 
BRANCH   5   6
ATOM      6  N   ASP A   1     -19.329 101.779  14.843  0.00  0.00    -0.238 NA
ATOM      7  H   ASP A   1     -18.443 102.305  14.705  0.00  0.00    +0.142 HD
ENDBRANCH   5   6
BRANCH   5   8
ATOM      8  CB  ASP A   1     -18.405 100.288  13.125  0.00  0.00    +0.140 C 
BRANCH   8   9
ATOM      9  CG  ASP A   1     -18.343 101.360  12.047  0.00  0.00    +0.367 C 
ATOM     10  OD2 ASP A   1     -19.155 102.310  12.108  0.00  0.00    -0.246 OA
ATOM     11  OD1 ASP A   1     -17.485 101.250  11.143  0.00  0.00    -0.246 OA
ENDBRANCH   8   9
ENDBRANCH   5   8
ENDBRANCH   1   5
BRANCH   2  12
ATOM     12  CA  LEU A   2     -19.351  98.380  17.290  0.00  0.00    +0.137 C 
BRANCH  12  13
ATOM     13  C   LEU A   2     -20.385  98.640  18.384  0.00  0.00    +0.227 C 
ATOM     14  O   LEU A   2     -20.420  97.938  19.394  0.00  0.00    -0.286 OA
ENDBRANCH  12  13
BRANCH  12  15
ATOM     15  CB  LEU A   2     -17.975  98.212  17.944  0.00  0.00    +0.028 C 
BRANCH  15  16
ATOM     16  CG  LEU A   2     -16.759  98.110  17.022  0.00  0.00    +0.002 C 
ATOM     17  CD2 LEU A   2     -15.484  98.261  17.839  0.00  0.00    +0.000 C 
ATOM     18  CD1 LEU A   2     -16.784  96.787  16.285  0.00  0.00    +0.000 C 
ENDBRANCH  15  16
ENDBRANCH  12  15
ENDBRANCH   2  12
TORSDOF 8
REMARK  Name = ../refined-set-2016/1ucn/1ucn_pocket.pdb
REMARK  150 active torsions:
REMARK  status: ('A' for Active; 'I' for Inactive)
REMARK    1  A    between atoms: _1  and  _3
REMARK    2  A    between atoms: _3  and  _4
REMARK    3  A    between atoms: _3  and  _6
REMARK    4  A    between atoms: _6  and  _7
REMARK    5  A    between atoms: _7  and  _8
REMARK    6  A    between atoms: _8  and  _9
REMARK    7  A    between atoms: _9  and  _10
REMARK    8  A    between atoms: _14  and  _16
REMARK    9  A    between atoms: _16  and  _17
REMARK   10  A    between atoms: _16  and  _19
REMARK   11  A    between atoms: _19  and  _20
REMARK   12  A    between atoms: _23  and  _25
REMARK   13  A    between atoms: _25  and  _26
REMARK   14  A    between atoms: _25  and  _28
REMARK   15  A    between atoms: _28  and  _29
REMARK   16  A    between atoms: _34  and  _36
REMARK   17  A    between atoms: _36  and  _37
REMARK   18  A    between atoms: _36  and  _39
REMARK   19  A    between atoms: _39  and  _40
REMARK   20  A    between atoms: _45  and  _46
REMARK   21  A    between atoms: _48  and  _50
REMARK   22  A    between atoms: _50  and  _51
REMARK   23  A    between atoms: _50  and  _53
REMARK   24  A    between atoms: _53  and  _54
REMARK   25  A    between atoms: _57  and  _59
REMARK   26  A    between atoms: _59  and  _60
REMARK   27  A    between atoms: _59  and  _62
REMARK   28  A    between atoms: _62  and  _63
REMARK   29  A    between atoms: _66  and  _68
REMARK   30  A    between atoms: _68  and  _69
REMARK   31  A    between atoms: _68  and  _71
REMARK   32  A    between atoms: _71  and  _72
REMARK   33  A    between atoms: _72  and  _73
REMARK   34  A    between atoms: _73  and  _74
REMARK   35  A    between atoms: _84  and  _85
REMARK   36  A    between atoms: _90  and  _92
REMARK   37  A    between atoms: _92  and  _93
REMARK   38  A    between atoms: _92  and  _95
REMARK   39  A    between atoms: _95  and  _96
REMARK   40  A    between atoms: _106  and  _108
REMARK   41  A    between atoms: _108  and  _109
REMARK   42  A    between atoms: _108  and  _111
REMARK   43  A    between atoms: _111  and  _112
REMARK   44  A    between atoms: _118  and  _120
REMARK   45  A    between atoms: _120  and  _121
REMARK   46  A    between atoms: _123  and  _125
REMARK   47  A    between atoms: _125  and  _126
REMARK   48  A    between atoms: _125  and  _128
REMARK   49  A    between atoms: _128  and  _129
REMARK   50  A    between atoms: _132  and  _134
REMARK   51  A    between atoms: _134  and  _135
REMARK   52  A    between atoms: _134  and  _137
REMARK   53  A    between atoms: _140  and  _142
REMARK   54  A    between atoms: _142  and  _143
REMARK   55  A    between atoms: _142  and  _145
REMARK   56  A    between atoms: _145  and  _146
REMARK   57  A    between atoms: _151  and  _152
REMARK   58  A    between atoms: _154  and  _156
REMARK   59  A    between atoms: _156  and  _157
REMARK   60  A    between atoms: _156  and  _159
REMARK   61  A    between atoms: _159  and  _160
REMARK   62  A    between atoms: _160  and  _161
REMARK   63  A    between atoms: _163  and  _165
REMARK   64  A    between atoms: _165  and  _166
REMARK   65  A    between atoms: _165  and  _168
REMARK   66  A    between atoms: _168  and  _169
REMARK   67  A    between atoms: _169  and  _170
REMARK   68  A    between atoms: _170  and  _171
REMARK   69  A    between atoms: _180  and  _182
REMARK   70  A    between atoms: _182  and  _183
REMARK   71  A    between atoms: _182  and  _185
REMARK   72  A    between atoms: _185  and  _186
REMARK   73  A    between atoms: _189  and  _191
REMARK   74  A    between atoms: _191  and  _192
REMARK   75  A    between atoms: _194  and  _196
REMARK   76  A    between atoms: _196  and  _197
REMARK   77  A    between atoms: _196  and  _199
REMARK   78  A    between atoms: _199  and  _200
REMARK   79  A    between atoms: _200  and  _201
REMARK   80  A    between atoms: _204  and  _206
REMARK   81  A    between atoms: _206  and  _207
REMARK   82  A    between atoms: _206  and  _209
REMARK   83  A    between atoms: _209  and  _210
REMARK   84  A    between atoms: _213  and  _215
REMARK   85  A    between atoms: _215  and  _216
REMARK   86  A    between atoms: _215  and  _218
REMARK   87  A    between atoms: _218  and  _219
REMARK   88  A    between atoms: _225  and  _226
REMARK   89  A    between atoms: _231  and  _233
REMARK   90  A    between atoms: _233  and  _234
REMARK   91  A    between atoms: _233  and  _236
REMARK   92  A    between atoms: _236  and  _237
REMARK   93  A    between atoms: _239  and  _241
REMARK   94  A    between atoms: _241  and  _242
REMARK   95  A    between atoms: _241  and  _244
REMARK   96  A    between atoms: _244  and  _245
REMARK   97  A    between atoms: _245  and  _246
REMARK   98  A    between atoms: _246  and  _247
REMARK   99  A    between atoms: _256  and  _258
REMARK  100  A    between atoms: _258  and  _259
REMARK  101  A    between atoms: _258  and  _261
REMARK  102  A    between atoms: _261  and  _262
REMARK  103  A    between atoms: _262  and  _263
REMARK  104  A    between atoms: _268  and  _270
REMARK  105  A    between atoms: _270  and  _271
REMARK  106  A    between atoms: _270  and  _273
REMARK  107  A    between atoms: _276  and  _278
REMARK  108  A    between atoms: _278  and  _279
REMARK  109  A    between atoms: _281  and  _283
REMARK  110  A    between atoms: _283  and  _284
REMARK  111  A    between atoms: _283  and  _286
REMARK  112  A    between atoms: _286  and  _287
REMARK  113  A    between atoms: _287  and  _288
REMARK  114  A    between atoms: _288  and  _289
REMARK  115  A    between atoms: _298  and  _300
REMARK  116  A    between atoms: _300  and  _301
REMARK  117  A    between atoms: _300  and  _303
REMARK  118  A    between atoms: _303  and  _304
REMARK  119  A    between atoms: _309  and  _311
REMARK  120  A    between atoms: _311  and  _312
REMARK  121  A    between atoms: _311  and  _314
REMARK  122  A    between atoms: _314  and  _315
REMARK  123  A    between atoms: _318  and  _320
REMARK  124  A    between atoms: _320  and  _321
REMARK  125  A    between atoms: _320  and  _323
REMARK  126  A    between atoms: _323  and  _324
REMARK  127  A    between atoms: _327  and  _329
REMARK  128  A    between atoms: _329  and  _330
REMARK  129  A    between atoms: _332  and  _334
REMARK  130  A    between atoms: _334  and  _335
REMARK  131  A    between atoms: _337  and  _339
REMARK  132  A    between atoms: _339  and  _340
REMARK  133  A    between atoms: _339  and  _342
REMARK  134  A    between atoms: _342  and  _343
REMARK  135  A    between atoms: _345  and  _347
REMARK  136  A    between atoms: _347  and  _348
REMARK  137  A    between atoms: _347  and  _350
REMARK  138  A    between atoms: _350  and  _351
REMARK  139  A    between atoms: _351  and  _353
REMARK  140  A    between atoms: _353  and  CA_375
REMARK  141  A    between atoms: _354  and  _356
REMARK  142  A    between atoms: _356  and  _357
REMARK  143  A    between atoms: _356  and  _359
REMARK  144  A    between atoms: _359  and  _360
REMARK  145  A    between atoms: _360  and  _361
REMARK  146  A    between atoms: _364  and  _366
REMARK  147  A    between atoms: _366  and  _367
REMARK  148  A    between atoms: _366  and  _369
REMARK  149  A    between atoms: _369  and  _370
REMARK  150  A    between atoms: _370  and  _371
REMARK                            x       y       z     vdW  Elec       q    Type
REMARK                         _______ _______ _______ _____ _____    ______ ____
ROOT
ATOM      1  C   PRO A   2     -20.964  93.285  24.486  0.00  0.00    +0.241 C 
ATOM      2  O   PRO A   2     -21.310  93.674  25.597  0.00  0.00    -0.273 OA
ATOM      3  N   TRP A   3     -19.726  93.425  24.025  0.00  0.00    -0.297 N 
ATOM      4  H   TRP A   3     -19.502  93.086  23.068  0.00  0.00    +0.150 HD
ENDROOT
BRANCH   1   8
ATOM      5  C   ARG A   1     -21.634  94.179  21.681  0.00  0.00    +0.241 C 
ATOM      6  O   ARG A   1     -21.726  95.154  22.425  0.00  0.00    -0.273 OA
ATOM      7  N   PRO A   2     -21.733  92.918  22.139  0.00  0.00    -0.272 N 
ATOM      8  CA  PRO A   2     -21.958  92.598  23.555  0.00  0.00    +0.152 C 
ATOM      9  CB  PRO A   2     -21.801  91.082  23.601  0.00  0.00    +0.031 C 
ATOM     10  CG  PRO A   2     -22.265  90.653  22.259  0.00  0.00    +0.024 C 
ATOM     11  CD  PRO A   2     -21.672  91.690  21.326  0.00  0.00    +0.094 C 
BRANCH   5  12
ATOM     12  CA  ARG A   1     -21.396  94.366  20.184  0.00  0.00    +0.145 C 
BRANCH  12  13
ATOM     13  N   ARG A   1     -22.147  95.513  19.685  0.00  0.00    -0.238 NA
ATOM     14  H   ARG A   1     -21.635  96.351  19.343  0.00  0.00    +0.142 HD
ENDBRANCH  12  13
BRANCH  12  15
ATOM     15  CB  ARG A   1     -19.897  94.564  19.920  0.00  0.00    +0.030 C 
BRANCH  15  16
ATOM     16  CG  ARG A   1     -19.523  94.583  18.442  0.00  0.00    +0.045 C 
BRANCH  16  17
ATOM     17  CD  ARG A   1     -19.775  93.236  17.794  0.00  0.00    +0.174 C 
BRANCH  17  18
ATOM     18  NE  ARG A   1     -19.735  93.332  16.339  0.00  0.00    -0.265 N 
ATOM     19  HE  ARG A   1     -20.613  93.138  15.816  0.00  0.00    +0.259 HD
ATOM     20  CZ  ARG A   1     -18.653  93.651  15.636  0.00  0.00    +0.342 C 
ATOM     21  NH2 ARG A   1     -17.508  93.900  16.255  0.00  0.00    -0.292 N 
ATOM     22 HH21 ARG A   1     -17.455  93.846  17.292  0.00  0.00    +0.255 HD
ATOM     23 HH22 ARG A   1     -16.662  94.149  15.704  0.00  0.00    +0.255 HD
ATOM     24  NH1 ARG A   1     -18.721  93.736  14.314  0.00  0.00    -0.292 N 
ATOM     25 HH11 ARG A   1     -19.621  93.553  13.827  0.00  0.00    +0.255 HD
ATOM     26 HH12 ARG A   1     -17.874  93.986  13.765  0.00  0.00    +0.255 HD
ENDBRANCH  17  18
ENDBRANCH  16  17
ENDBRANCH  15  16
ENDBRANCH  12  15
ENDBRANCH   5  12
ENDBRANCH   1   8
BRANCH   3  27
ATOM     27  CA  TRP A   3     -18.669  94.042  24.824  0.00  0.00    +0.153 C 
BRANCH  27  28
ATOM     28  C   TRP A   3     -18.525  95.552  24.642  0.00  0.00    +0.241 C 
ATOM     29  O   TRP A   3     -17.671  96.172  25.275  0.00  0.00    -0.273 OA
ATOM     30  N   PHE A   4     -19.363  96.145  23.794  0.00  0.00    -0.298 N 
ATOM     31  H   PHE A   4     -20.084  95.576  23.306  0.00  0.00    +0.150 HD
BRANCH  30  32
ATOM     32  CA  PHE A   4     -19.287  97.577  23.538  0.00  0.00    +0.141 C 
BRANCH  32  33
ATOM     33  C   PHE A   4     -19.246  98.417  24.808  0.00  0.00    +0.227 C 
ATOM     34  O   PHE A   4     -18.340  99.233  24.995  0.00  0.00    -0.286 OA
ENDBRANCH  32  33
BRANCH  32  35
ATOM     35  CB  PHE A   4     -20.468  98.039  22.676  0.00  0.00    +0.054 C 
BRANCH  35  36
ATOM     36  CG  PHE A   4     -20.402  99.494  22.301  0.00  0.00    -0.020 A 
ATOM     37  CD2 PHE A   4     -21.262 100.415  22.886  0.00  0.00    -0.004 A 
ATOM     38  CE2 PHE A   4     -21.166 101.770  22.584  0.00  0.00    -0.000 A 
ATOM     39  CZ  PHE A   4     -20.201 102.215  21.686  0.00  0.00    -0.000 A 
ATOM     40  CE1 PHE A   4     -19.337 101.301  21.091  0.00  0.00    -0.000 A 
ATOM     41  CD1 PHE A   4     -19.443  99.949  21.400  0.00  0.00    -0.004 A 
ENDBRANCH  35  36
ENDBRANCH  32  35
ENDBRANCH  30  32
ENDBRANCH  27  28
BRANCH  27  42
ATOM     42  CB  TRP A   3     -17.320  93.371  24.522  0.00  0.00    +0.057 C 
BRANCH  42  43
ATOM     43  CG  TRP A   3     -17.153  92.956  23.089  0.00  0.00    -0.002 A 
ATOM     44  CD1 TRP A   3     -17.481  91.747  22.542  0.00  0.00    +0.068 A 
ATOM     45  NE1 TRP A   3     -17.229  91.752  21.191  0.00  0.00    -0.352 N 
ATOM     46  CE2 TRP A   3     -16.730  92.977  20.837  0.00  0.00    +0.056 A 
ATOM     47  CZ2 TRP A   3     -16.328  93.459  19.583  0.00  0.00    +0.017 A 
ATOM     48  CH2 TRP A   3     -15.859  94.746  19.521  0.00  0.00    +0.001 A 
ATOM     49  CZ3 TRP A   3     -15.782  95.555  20.671  0.00  0.00    +0.000 A 
ATOM     50  CE3 TRP A   3     -16.183  95.074  21.919  0.00  0.00    +0.001 A 
ATOM     51  HE1 TRP A   3     -17.391  90.955  20.543  0.00  0.00    +0.166 HD
ATOM     52  CD2 TRP A   3     -16.665  93.764  22.010  0.00  0.00    +0.013 A 
ENDBRANCH  42  43
ENDBRANCH  27  42
ENDBRANCH   3  27
TORSDOF 15
REMARK  Name = ../refined-set-2016/1ucn/1ucn_pocket.pdb
REMARK  150 active torsions:
REMARK  status: ('A' for Active; 'I' for Inactive)
REMARK    1  A    between atoms: _1  and  _3
REMARK    2  A    between atoms: _3  and  _4
REMARK    3  A    between atoms: _3  and  _6
REMARK    4  A    between atoms: _6  and  _7
REMARK    5  A    between atoms: _7  and  _8
REMARK    6  A    between atoms: _8  and  _9
REMARK    7  A    between atoms: _9  and  _10
REMARK    8  A    between atoms: _14  and  _16
REMARK    9  A    between atoms: _16  and  _17
REMARK   10  A    between atoms: _16  and  _19
REMARK   11  A    between atoms: _19  and  _20
REMARK   12  A    between atoms: _23  and  _25
REMARK   13  A    between atoms: _25  and  _26
REMARK   14  A    between atoms: _25  and  _28
REMARK   15  A    between atoms: _28  and  _29
REMARK   16  A    between atoms: _34  and  _36
REMARK   17  A    between atoms: _36  and  _37
REMARK   18  A    between atoms: _36  and  _39
REMARK   19  A    between atoms: _39  and  _40
REMARK   20  A    between atoms: _45  and  _46
REMARK   21  A    between atoms: _48  and  _50
REMARK   22  A    between atoms: _50  and  _51
REMARK   23  A    between atoms: _50  and  _53
REMARK   24  A    between atoms: _53  and  _54
REMARK   25  A    between atoms: _57  and  _59
REMARK   26  A    between atoms: _59  and  _60
REMARK   27  A    between atoms: _59  and  _62
REMARK   28  A    between atoms: _62  and  _63
REMARK   29  A    between atoms: _66  and  _68
REMARK   30  A    between atoms: _68  and  _69
REMARK   31  A    between atoms: _68  and  _71
REMARK   32  A    between atoms: _71  and  _72
REMARK   33  A    between atoms: _72  and  _73
REMARK   34  A    between atoms: _73  and  _74
REMARK   35  A    between atoms: _84  and  _85
REMARK   36  A    between atoms: _90  and  _92
REMARK   37  A    between atoms: _92  and  _93
REMARK   38  A    between atoms: _92  and  _95
REMARK   39  A    between atoms: _95  and  _96
REMARK   40  A    between atoms: _106  and  _108
REMARK   41  A    between atoms: _108  and  _109
REMARK   42  A    between atoms: _108  and  _111
REMARK   43  A    between atoms: _111  and  _112
REMARK   44  A    between atoms: _118  and  _120
REMARK   45  A    between atoms: _120  and  _121
REMARK   46  A    between atoms: _123  and  _125
REMARK   47  A    between atoms: _125  and  _126
REMARK   48  A    between atoms: _125  and  _128
REMARK   49  A    between atoms: _128  and  _129
REMARK   50  A    between atoms: _132  and  _134
REMARK   51  A    between atoms: _134  and  _135
REMARK   52  A    between atoms: _134  and  _137
REMARK   53  A    between atoms: _140  and  _142
REMARK   54  A    between atoms: _142  and  _143
REMARK   55  A    between atoms: _142  and  _145
REMARK   56  A    between atoms: _145  and  _146
REMARK   57  A    between atoms: _151  and  _152
REMARK   58  A    between atoms: _154  and  _156
REMARK   59  A    between atoms: _156  and  _157
REMARK   60  A    between atoms: _156  and  _159
REMARK   61  A    between atoms: _159  and  _160
REMARK   62  A    between atoms: _160  and  _161
REMARK   63  A    between atoms: _163  and  _165
REMARK   64  A    between atoms: _165  and  _166
REMARK   65  A    between atoms: _165  and  _168
REMARK   66  A    between atoms: _168  and  _169
REMARK   67  A    between atoms: _169  and  _170
REMARK   68  A    between atoms: _170  and  _171
REMARK   69  A    between atoms: _180  and  _182
REMARK   70  A    between atoms: _182  and  _183
REMARK   71  A    between atoms: _182  and  _185
REMARK   72  A    between atoms: _185  and  _186
REMARK   73  A    between atoms: _189  and  _191
REMARK   74  A    between atoms: _191  and  _192
REMARK   75  A    between atoms: _194  and  _196
REMARK   76  A    between atoms: _196  and  _197
REMARK   77  A    between atoms: _196  and  _199
REMARK   78  A    between atoms: _199  and  _200
REMARK   79  A    between atoms: _200  and  _201
REMARK   80  A    between atoms: _204  and  _206
REMARK   81  A    between atoms: _206  and  _207
REMARK   82  A    between atoms: _206  and  _209
REMARK   83  A    between atoms: _209  and  _210
REMARK   84  A    between atoms: _213  and  _215
REMARK   85  A    between atoms: _215  and  _216
REMARK   86  A    between atoms: _215  and  _218
REMARK   87  A    between atoms: _218  and  _219
REMARK   88  A    between atoms: _225  and  _226
REMARK   89  A    between atoms: _231  and  _233
REMARK   90  A    between atoms: _233  and  _234
REMARK   91  A    between atoms: _233  and  _236
REMARK   92  A    between atoms: _236  and  _237
REMARK   93  A    between atoms: _239  and  _241
REMARK   94  A    between atoms: _241  and  _242
REMARK   95  A    between atoms: _241  and  _244
REMARK   96  A    between atoms: _244  and  _245
REMARK   97  A    between atoms: _245  and  _246
REMARK   98  A    between atoms: _246  and  _247
REMARK   99  A    between atoms: _256  and  _258
REMARK  100  A    between atoms: _258  and  _259
REMARK  101  A    between atoms: _258  and  _261
REMARK  102  A    between atoms: _261  and  _262
REMARK  103  A    between atoms: _262  and  _263
REMARK  104  A    between atoms: _268  and  _270
REMARK  105  A    between atoms: _270  and  _271
REMARK  106  A    between atoms: _270  and  _273
REMARK  107  A    between atoms: _276  and  _278
REMARK  108  A    between atoms: _278  and  _279
REMARK  109  A    between atoms: _281  and  _283
REMARK  110  A    between atoms: _283  and  _284
REMARK  111  A    between atoms: _283  and  _286
REMARK  112  A    between atoms: _286  and  _287
REMARK  113  A    between atoms: _287  and  _288
REMARK  114  A    between atoms: _288  and  _289
REMARK  115  A    between atoms: _298  and  _300
REMARK  116  A    between atoms: _300  and  _301
REMARK  117  A    between atoms: _300  and  _303
REMARK  118  A    between atoms: _303  and  _304
REMARK  119  A    between atoms: _309  and  _311
REMARK  120  A    between atoms: _311  and  _312
REMARK  121  A    between atoms: _311  and  _314
REMARK  122  A    between atoms: _314  and  _315
REMARK  123  A    between atoms: _318  and  _320
REMARK  124  A    between atoms: _320  and  _321
REMARK  125  A    between atoms: _320  and  _323
REMARK  126  A    between atoms: _323  and  _324
REMARK  127  A    between atoms: _327  and  _329
REMARK  128  A    between atoms: _329  and  _330
REMARK  129  A    between atoms: _332  and  _334
REMARK  130  A    between atoms: _334  and  _335
REMARK  131  A    between atoms: _337  and  _339
REMARK  132  A    between atoms: _339  and  _340
REMARK  133  A    between atoms: _339  and  _342
REMARK  134  A    between atoms: _342  and  _343
REMARK  135  A    between atoms: _345  and  _347
REMARK  136  A    between atoms: _347  and  _348
REMARK  137  A    between atoms: _347  and  _350
REMARK  138  A    between atoms: _350  and  _351
REMARK  139  A    between atoms: _351  and  _353
REMARK  140  A    between atoms: _353  and  CA_375
REMARK  141  A    between atoms: _354  and  _356
REMARK  142  A    between atoms: _356  and  _357
REMARK  143  A    between atoms: _356  and  _359
REMARK  144  A    between atoms: _359  and  _360
REMARK  145  A    between atoms: _360  and  _361
REMARK  146  A    between atoms: _364  and  _366
REMARK  147  A    between atoms: _366  and  _367
REMARK  148  A    between atoms: _366  and  _369
REMARK  149  A    between atoms: _369  and  _370
REMARK  150  A    between atoms: _370  and  _371
REMARK                            x       y       z     vdW  Elec       q    Type
REMARK                         _______ _______ _______ _____ _____    ______ ____
ROOT
ATOM      1  CA  LEU A   2     -14.912  98.938  25.684  0.00  0.00    +0.149 C 
ENDROOT
BRANCH   1   4
ATOM      2  C   GLY A   1     -16.005  98.251  27.763  0.00  0.00    +0.240 C 
ATOM      3  O   GLY A   1     -15.183  98.833  28.469  0.00  0.00    -0.274 OA
ATOM      4  N   LEU A   2     -15.953  98.243  26.433  0.00  0.00    -0.297 N 
ATOM      5  H   LEU A   2     -16.683  97.721  25.907  0.00  0.00    +0.150 HD
BRANCH   2   6
ATOM      6  CA  GLY A   1     -17.158  97.487  28.384  0.00  0.00    +0.169 C 
BRANCH   6   7
ATOM      7  N   GLY A   1     -18.394  97.698  27.648  0.00  0.00    -0.236 NA
ATOM      8  H   GLY A   1     -18.785  96.933  27.062  0.00  0.00    +0.142 HD
ENDBRANCH   6   7
ENDBRANCH   2   6
ENDBRANCH   1   4
BRANCH   1   9
ATOM      9  C   LEU A   2     -14.902 100.434  25.989  0.00  0.00    +0.241 C 
ATOM     10  O   LEU A   2     -13.841 101.035  26.176  0.00  0.00    -0.273 OA
ATOM     11  N   VAL A   3     -16.089 101.032  26.038  0.00  0.00    -0.298 N 
ATOM     12  H   VAL A   3     -16.947 100.468  25.873  0.00  0.00    +0.150 HD
BRANCH  11  13
ATOM     13  CA  VAL A   3     -16.219 102.457  26.317  0.00  0.00    +0.137 C 
BRANCH  13  14
ATOM     14  CB  VAL A   3     -17.674 102.932  26.094  0.00  0.00    +0.026 C 
ATOM     15  CG2 VAL A   3     -17.820 104.392  26.493  0.00  0.00    +0.002 C 
ATOM     16  CG1 VAL A   3     -18.061 102.739  24.636  0.00  0.00    +0.002 C 
ENDBRANCH  13  14
BRANCH  13  17
ATOM     17  C   VAL A   3     -15.802 102.769  27.749  0.00  0.00    +0.227 C 
ATOM     18  O   VAL A   3     -15.090 103.740  28.001  0.00  0.00    -0.286 OA
ENDBRANCH  13  17
ENDBRANCH  11  13
ENDBRANCH   1   9
BRANCH   1  19
ATOM     19  CB  LEU A   2     -15.121  98.720  24.183  0.00  0.00    +0.029 C 
BRANCH  19  20
ATOM     20  CG  LEU A   2     -14.250  99.542  23.233  0.00  0.00    +0.002 C 
ATOM     21  CD2 LEU A   2     -12.780  99.274  23.524  0.00  0.00    +0.000 C 
ATOM     22  CD1 LEU A   2     -14.590  99.186  21.801  0.00  0.00    +0.000 C 
ENDBRANCH  19  20
ENDBRANCH   1  19
TORSDOF 9
REMARK  Name = ../refined-set-2016/1ucn/1ucn_pocket.pdb
REMARK  150 active torsions:
REMARK  status: ('A' for Active; 'I' for Inactive)
REMARK    1  A    between atoms: _1  and  _3
REMARK    2  A    between atoms: _3  and  _4
REMARK    3  A    between atoms: _3  and  _6
REMARK    4  A    between atoms: _6  and  _7
REMARK    5  A    between atoms: _7  and  _8
REMARK    6  A    between atoms: _8  and  _9
REMARK    7  A    between atoms: _9  and  _10
REMARK    8  A    between atoms: _14  and  _16
REMARK    9  A    between atoms: _16  and  _17
REMARK   10  A    between atoms: _16  and  _19
REMARK   11  A    between atoms: _19  and  _20
REMARK   12  A    between atoms: _23  and  _25
REMARK   13  A    between atoms: _25  and  _26
REMARK   14  A    between atoms: _25  and  _28
REMARK   15  A    between atoms: _28  and  _29
REMARK   16  A    between atoms: _34  and  _36
REMARK   17  A    between atoms: _36  and  _37
REMARK   18  A    between atoms: _36  and  _39
REMARK   19  A    between atoms: _39  and  _40
REMARK   20  A    between atoms: _45  and  _46
REMARK   21  A    between atoms: _48  and  _50
REMARK   22  A    between atoms: _50  and  _51
REMARK   23  A    between atoms: _50  and  _53
REMARK   24  A    between atoms: _53  and  _54
REMARK   25  A    between atoms: _57  and  _59
REMARK   26  A    between atoms: _59  and  _60
REMARK   27  A    between atoms: _59  and  _62
REMARK   28  A    between atoms: _62  and  _63
REMARK   29  A    between atoms: _66  and  _68
REMARK   30  A    between atoms: _68  and  _69
REMARK   31  A    between atoms: _68  and  _71
REMARK   32  A    between atoms: _71  and  _72
REMARK   33  A    between atoms: _72  and  _73
REMARK   34  A    between atoms: _73  and  _74
REMARK   35  A    between atoms: _84  and  _85
REMARK   36  A    between atoms: _90  and  _92
REMARK   37  A    between atoms: _92  and  _93
REMARK   38  A    between atoms: _92  and  _95
REMARK   39  A    between atoms: _95  and  _96
REMARK   40  A    between atoms: _106  and  _108
REMARK   41  A    between atoms: _108  and  _109
REMARK   42  A    between atoms: _108  and  _111
REMARK   43  A    between atoms: _111  and  _112
REMARK   44  A    between atoms: _118  and  _120
REMARK   45  A    between atoms: _120  and  _121
REMARK   46  A    between atoms: _123  and  _125
REMARK   47  A    between atoms: _125  and  _126
REMARK   48  A    between atoms: _125  and  _128
REMARK   49  A    between atoms: _128  and  _129
REMARK   50  A    between atoms: _132  and  _134
REMARK   51  A    between atoms: _134  and  _135
REMARK   52  A    between atoms: _134  and  _137
REMARK   53  A    between atoms: _140  and  _142
REMARK   54  A    between atoms: _142  and  _143
REMARK   55  A    between atoms: _142  and  _145
REMARK   56  A    between atoms: _145  and  _146
REMARK   57  A    between atoms: _151  and  _152
REMARK   58  A    between atoms: _154  and  _156
REMARK   59  A    between atoms: _156  and  _157
REMARK   60  A    between atoms: _156  and  _159
REMARK   61  A    between atoms: _159  and  _160
REMARK   62  A    between atoms: _160  and  _161
REMARK   63  A    between atoms: _163  and  _165
REMARK   64  A    between atoms: _165  and  _166
REMARK   65  A    between atoms: _165  and  _168
REMARK   66  A    between atoms: _168  and  _169
REMARK   67  A    between atoms: _169  and  _170
REMARK   68  A    between atoms: _170  and  _171
REMARK   69  A    between atoms: _180  and  _182
REMARK   70  A    between atoms: _182  and  _183
REMARK   71  A    between atoms: _182  and  _185
REMARK   72  A    between atoms: _185  and  _186
REMARK   73  A    between atoms: _189  and  _191
REMARK   74  A    between atoms: _191  and  _192
REMARK   75  A    between atoms: _194  and  _196
REMARK   76  A    between atoms: _196  and  _197
REMARK   77  A    between atoms: _196  and  _199
REMARK   78  A    between atoms: _199  and  _200
REMARK   79  A    between atoms: _200  and  _201
REMARK   80  A    between atoms: _204  and  _206
REMARK   81  A    between atoms: _206  and  _207
REMARK   82  A    between atoms: _206  and  _209
REMARK   83  A    between atoms: _209  and  _210
REMARK   84  A    between atoms: _213  and  _215
REMARK   85  A    between atoms: _215  and  _216
REMARK   86  A    between atoms: _215  and  _218
REMARK   87  A    between atoms: _218  and  _219
REMARK   88  A    between atoms: _225  and  _226
REMARK   89  A    between atoms: _231  and  _233
REMARK   90  A    between atoms: _233  and  _234
REMARK   91  A    between atoms: _233  and  _236
REMARK   92  A    between atoms: _236  and  _237
REMARK   93  A    between atoms: _239  and  _241
REMARK   94  A    between atoms: _241  and  _242
REMARK   95  A    between atoms: _241  and  _244
REMARK   96  A    between atoms: _244  and  _245
REMARK   97  A    between atoms: _245  and  _246
REMARK   98  A    between atoms: _246  and  _247
REMARK   99  A    between atoms: _256  and  _258
REMARK  100  A    between atoms: _258  and  _259
REMARK  101  A    between atoms: _258  and  _261
REMARK  102  A    between atoms: _261  and  _262
REMARK  103  A    between atoms: _262  and  _263
REMARK  104  A    between atoms: _268  and  _270
REMARK  105  A    between atoms: _270  and  _271
REMARK  106  A    between atoms: _270  and  _273
REMARK  107  A    between atoms: _276  and  _278
REMARK  108  A    between atoms: _278  and  _279
REMARK  109  A    between atoms: _281  and  _283
REMARK  110  A    between atoms: _283  and  _284
REMARK  111  A    between atoms: _283  and  _286
REMARK  112  A    between atoms: _286  and  _287
REMARK  113  A    between atoms: _287  and  _288
REMARK  114  A    between atoms: _288  and  _289
REMARK  115  A    between atoms: _298  and  _300
REMARK  116  A    between atoms: _300  and  _301
REMARK  117  A    between atoms: _300  and  _303
REMARK  118  A    between atoms: _303  and  _304
REMARK  119  A    between atoms: _309  and  _311
REMARK  120  A    between atoms: _311  and  _312
REMARK  121  A    between atoms: _311  and  _314
REMARK  122  A    between atoms: _314  and  _315
REMARK  123  A    between atoms: _318  and  _320
REMARK  124  A    between atoms: _320  and  _321
REMARK  125  A    between atoms: _320  and  _323
REMARK  126  A    between atoms: _323  and  _324
REMARK  127  A    between atoms: _327  and  _329
REMARK  128  A    between atoms: _329  and  _330
REMARK  129  A    between atoms: _332  and  _334
REMARK  130  A    between atoms: _334  and  _335
REMARK  131  A    between atoms: _337  and  _339
REMARK  132  A    between atoms: _339  and  _340
REMARK  133  A    between atoms: _339  and  _342
REMARK  134  A    between atoms: _342  and  _343
REMARK  135  A    between atoms: _345  and  _347
REMARK  136  A    between atoms: _347  and  _348
REMARK  137  A    between atoms: _347  and  _350
REMARK  138  A    between atoms: _350  and  _351
REMARK  139  A    between atoms: _351  and  _353
REMARK  140  A    between atoms: _353  and  CA_375
REMARK  141  A    between atoms: _354  and  _356
REMARK  142  A    between atoms: _356  and  _357
REMARK  143  A    between atoms: _356  and  _359
REMARK  144  A    between atoms: _359  and  _360
REMARK  145  A    between atoms: _360  and  _361
REMARK  146  A    between atoms: _364  and  _366
REMARK  147  A    between atoms: _366  and  _367
REMARK  148  A    between atoms: _366  and  _369
REMARK  149  A    between atoms: _369  and  _370
REMARK  150  A    between atoms: _370  and  _371
REMARK                            x       y       z     vdW  Elec       q    Type
REMARK                         _______ _______ _______ _____ _____    ______ ____
ROOT
ATOM      1  CA  TYR A   1     -12.329 100.861  29.757  0.00  0.00    +0.149 C 
ENDROOT
BRANCH   1   2
ATOM      2  C   TYR A   1     -11.547 102.017  29.127  0.00  0.00    +0.239 C 
ATOM      3  O   TYR A   1     -10.669 102.597  29.766  0.00  0.00    -0.274 OA
ATOM      4  N   MET A   2     -11.872 102.362  27.885  0.00  0.00    -0.298 N 
ATOM      5  H   MET A   2     -12.629 101.847  27.393  0.00  0.00    +0.150 HD
BRANCH   4   6
ATOM      6  CA  MET A   2     -11.185 103.450  27.202  0.00  0.00    +0.138 C 
BRANCH   6   7
ATOM      7  C   MET A   2     -11.358 104.785  27.913  0.00  0.00    +0.227 C 
ATOM      8  O   MET A   2     -10.582 105.718  27.702  0.00  0.00    -0.286 OA
ENDBRANCH   6   7
BRANCH   6   9
ATOM      9  CB  MET A   2     -11.684 103.563  25.763  0.00  0.00    +0.039 C 
BRANCH   9  10
ATOM     10  CG  MET A   2     -11.199 102.440  24.867  0.00  0.00    +0.060 C 
BRANCH  10  11
ATOM     11  SD  MET A   2      -9.383 102.399  24.777  0.00  0.00    -0.139 S 
ATOM     12  CE  MET A   2      -9.094 103.589  23.450  0.00  0.00    +0.069 C 
ENDBRANCH  10  11
ENDBRANCH   9  10
ENDBRANCH   6   9
ENDBRANCH   4   6
ENDBRANCH   1   2
BRANCH   1  13
ATOM     13  N   TYR A   1     -13.773 101.061  29.679  0.00  0.00    -0.238 NA
ATOM     14  H   TYR A   1     -14.342 100.381  29.135  0.00  0.00    +0.142 HD
ENDBRANCH   1  13
BRANCH   1  15
ATOM     15  CB  TYR A   1     -11.981  99.517  29.100  0.00  0.00    +0.053 C 
BRANCH  15  16
ATOM     16  CG  TYR A   1     -10.624  99.397  28.430  0.00  0.00    -0.020 A 
ATOM     17  CD2 TYR A   1      -9.437  99.633  29.129  0.00  0.00    -0.001 A 
ATOM     18  CE2 TYR A   1      -8.192  99.442  28.517  0.00  0.00    +0.036 A 
ATOM     19  CZ  TYR A   1      -8.136  99.011  27.189  0.00  0.00    +0.134 A 
ATOM     20  CE1 TYR A   1      -9.304  98.780  26.481  0.00  0.00    +0.036 A 
ATOM     21  CD1 TYR A   1     -10.533  98.974  27.101  0.00  0.00    -0.001 A 
BRANCH  19  22
ATOM     22  OH  TYR A   1      -6.924  98.779  26.565  0.00  0.00    -0.506 OA
ATOM     23  HH  TYR A   1      -6.186  98.987  27.192  0.00  0.00    +0.292 HD
ENDBRANCH  19  22
ENDBRANCH  15  16
ENDBRANCH   1  15
TORSDOF 10
REMARK  Name = ../refined-set-2016/1ucn/1ucn_pocket.pdb
REMARK  150 active torsions:
REMARK  status: ('A' for Active; 'I' for Inactive)
REMARK    1  A    between atoms: _1  and  _3
REMARK    2  A    between atoms: _3  and  _4
REMARK    3  A    between atoms: _3  and  _6
REMARK    4  A    between atoms: _6  and  _7
REMARK    5  A    between atoms: _7  and  _8
REMARK    6  A    between atoms: _8  and  _9
REMARK    7  A    between atoms: _9  and  _10
REMARK    8  A    between atoms: _14  and  _16
REMARK    9  A    between atoms: _16  and  _17
REMARK   10  A    between atoms: _16  and  _19
REMARK   11  A    between atoms: _19  and  _20
REMARK   12  A    between atoms: _23  and  _25
REMARK   13  A    between atoms: _25  and  _26
REMARK   14  A    between atoms: _25  and  _28
REMARK   15  A    between atoms: _28  and  _29
REMARK   16  A    between atoms: _34  and  _36
REMARK   17  A    between atoms: _36  and  _37
REMARK   18  A    between atoms: _36  and  _39
REMARK   19  A    between atoms: _39  and  _40
REMARK   20  A    between atoms: _45  and  _46
REMARK   21  A    between atoms: _48  and  _50
REMARK   22  A    between atoms: _50  and  _51
REMARK   23  A    between atoms: _50  and  _53
REMARK   24  A    between atoms: _53  and  _54
REMARK   25  A    between atoms: _57  and  _59
REMARK   26  A    between atoms: _59  and  _60
REMARK   27  A    between atoms: _59  and  _62
REMARK   28  A    between atoms: _62  and  _63
REMARK   29  A    between atoms: _66  and  _68
REMARK   30  A    between atoms: _68  and  _69
REMARK   31  A    between atoms: _68  and  _71
REMARK   32  A    between atoms: _71  and  _72
REMARK   33  A    between atoms: _72  and  _73
REMARK   34  A    between atoms: _73  and  _74
REMARK   35  A    between atoms: _84  and  _85
REMARK   36  A    between atoms: _90  and  _92
REMARK   37  A    between atoms: _92  and  _93
REMARK   38  A    between atoms: _92  and  _95
REMARK   39  A    between atoms: _95  and  _96
REMARK   40  A    between atoms: _106  and  _108
REMARK   41  A    between atoms: _108  and  _109
REMARK   42  A    between atoms: _108  and  _111
REMARK   43  A    between atoms: _111  and  _112
REMARK   44  A    between atoms: _118  and  _120
REMARK   45  A    between atoms: _120  and  _121
REMARK   46  A    between atoms: _123  and  _125
REMARK   47  A    between atoms: _125  and  _126
REMARK   48  A    between atoms: _125  and  _128
REMARK   49  A    between atoms: _128  and  _129
REMARK   50  A    between atoms: _132  and  _134
REMARK   51  A    between atoms: _134  and  _135
REMARK   52  A    between atoms: _134  and  _137
REMARK   53  A    between atoms: _140  and  _142
REMARK   54  A    between atoms: _142  and  _143
REMARK   55  A    between atoms: _142  and  _145
REMARK   56  A    between atoms: _145  and  _146
REMARK   57  A    between atoms: _151  and  _152
REMARK   58  A    between atoms: _154  and  _156
REMARK   59  A    between atoms: _156  and  _157
REMARK   60  A    between atoms: _156  and  _159
REMARK   61  A    between atoms: _159  and  _160
REMARK   62  A    between atoms: _160  and  _161
REMARK   63  A    between atoms: _163  and  _165
REMARK   64  A    between atoms: _165  and  _166
REMARK   65  A    between atoms: _165  and  _168
REMARK   66  A    between atoms: _168  and  _169
REMARK   67  A    between atoms: _169  and  _170
REMARK   68  A    between atoms: _170  and  _171
REMARK   69  A    between atoms: _180  and  _182
REMARK   70  A    between atoms: _182  and  _183
REMARK   71  A    between atoms: _182  and  _185
REMARK   72  A    between atoms: _185  and  _186
REMARK   73  A    between atoms: _189  and  _191
REMARK   74  A    between atoms: _191  and  _192
REMARK   75  A    between atoms: _194  and  _196
REMARK   76  A    between atoms: _196  and  _197
REMARK   77  A    between atoms: _196  and  _199
REMARK   78  A    between atoms: _199  and  _200
REMARK   79  A    between atoms: _200  and  _201
REMARK   80  A    between atoms: _204  and  _206
REMARK   81  A    between atoms: _206  and  _207
REMARK   82  A    between atoms: _206  and  _209
REMARK   83  A    between atoms: _209  and  _210
REMARK   84  A    between atoms: _213  and  _215
REMARK   85  A    between atoms: _215  and  _216
REMARK   86  A    between atoms: _215  and  _218
REMARK   87  A    between atoms: _218  and  _219
REMARK   88  A    between atoms: _225  and  _226
REMARK   89  A    between atoms: _231  and  _233
REMARK   90  A    between atoms: _233  and  _234
REMARK   91  A    between atoms: _233  and  _236
REMARK   92  A    between atoms: _236  and  _237
REMARK   93  A    between atoms: _239  and  _241
REMARK   94  A    between atoms: _241  and  _242
REMARK   95  A    between atoms: _241  and  _244
REMARK   96  A    between atoms: _244  and  _245
REMARK   97  A    between atoms: _245  and  _246
REMARK   98  A    between atoms: _246  and  _247
REMARK   99  A    between atoms: _256  and  _258
REMARK  100  A    between atoms: _258  and  _259
REMARK  101  A    between atoms: _258  and  _261
REMARK  102  A    between atoms: _261  and  _262
REMARK  103  A    between atoms: _262  and  _263
REMARK  104  A    between atoms: _268  and  _270
REMARK  105  A    between atoms: _270  and  _271
REMARK  106  A    between atoms: _270  and  _273
REMARK  107  A    between atoms: _276  and  _278
REMARK  108  A    between atoms: _278  and  _279
REMARK  109  A    between atoms: _281  and  _283
REMARK  110  A    between atoms: _283  and  _284
REMARK  111  A    between atoms: _283  and  _286
REMARK  112  A    between atoms: _286  and  _287
REMARK  113  A    between atoms: _287  and  _288
REMARK  114  A    between atoms: _288  and  _289
REMARK  115  A    between atoms: _298  and  _300
REMARK  116  A    between atoms: _300  and  _301
REMARK  117  A    between atoms: _300  and  _303
REMARK  118  A    between atoms: _303  and  _304
REMARK  119  A    between atoms: _309  and  _311
REMARK  120  A    between atoms: _311  and  _312
REMARK  121  A    between atoms: _311  and  _314
REMARK  122  A    between atoms: _314  and  _315
REMARK  123  A    between atoms: _318  and  _320
REMARK  124  A    between atoms: _320  and  _321
REMARK  125  A    between atoms: _320  and  _323
REMARK  126  A    between atoms: _323  and  _324
REMARK  127  A    between atoms: _327  and  _329
REMARK  128  A    between atoms: _329  and  _330
REMARK  129  A    between atoms: _332  and  _334
REMARK  130  A    between atoms: _334  and  _335
REMARK  131  A    between atoms: _337  and  _339
REMARK  132  A    between atoms: _339  and  _340
REMARK  133  A    between atoms: _339  and  _342
REMARK  134  A    between atoms: _342  and  _343
REMARK  135  A    between atoms: _345  and  _347
REMARK  136  A    between atoms: _347  and  _348
REMARK  137  A    between atoms: _347  and  _350
REMARK  138  A    between atoms: _350  and  _351
REMARK  139  A    between atoms: _351  and  _353
REMARK  140  A    between atoms: _353  and  CA_375
REMARK  141  A    between atoms: _354  and  _356
REMARK  142  A    between atoms: _356  and  _357
REMARK  143  A    between atoms: _356  and  _359
REMARK  144  A    between atoms: _359  and  _360
REMARK  145  A    between atoms: _360  and  _361
REMARK  146  A    between atoms: _364  and  _366
REMARK  147  A    between atoms: _366  and  _367
REMARK  148  A    between atoms: _366  and  _369
REMARK  149  A    between atoms: _369  and  _370
REMARK  150  A    between atoms: _370  and  _371
REMARK                            x       y       z     vdW  Elec       q    Type
REMARK                         _______ _______ _______ _____ _____    ______ ____
ROOT
ATOM      1  NE  ARG A   1      -5.652  97.825  12.046  0.00  0.00    -0.265 N 
ATOM      2  CZ  ARG A   1      -6.266  97.833  13.226  0.00  0.00    +0.342 C 
ATOM      3  NH2 ARG A   1      -6.476  96.694  13.876  0.00  0.00    -0.292 N 
ATOM      4 HH21 ARG A   1      -6.956  96.703  14.798  0.00  0.00    +0.255 HD
ATOM      5 HH22 ARG A   1      -6.160  95.793  13.463  0.00  0.00    +0.255 HD
ATOM      6  NH1 ARG A   1      -6.659  98.980  13.765  0.00  0.00    -0.292 N 
ATOM      7 HH11 ARG A   1      -7.139  98.984  14.688  0.00  0.00    +0.255 HD
ATOM      8 HH12 ARG A   1      -6.487  99.875  13.265  0.00  0.00    +0.255 HD
ATOM      9  HE  ARG A   1      -5.362  96.906  11.655  0.00  0.00    +0.259 HD
ENDROOT
BRANCH   1  10
ATOM     10  CD  ARG A   1      -5.359  99.024  11.263  0.00  0.00    +0.174 C 
BRANCH  10  11
ATOM     11  CG  ARG A   1      -4.709  98.689   9.928  0.00  0.00    +0.045 C 
BRANCH  11  12
ATOM     12  CB  ARG A   1      -3.603  97.656  10.091  0.00  0.00    +0.029 C 
BRANCH  12  13
ATOM     13  CA  ARG A   1      -2.503  98.037  11.089  0.00  0.00    +0.133 C 
BRANCH  13  14
ATOM     14  N   ARG A   1      -1.771  99.207  10.618  0.00  0.00    -0.239 NA
ATOM     15  H   ARG A   1      -2.068  99.668   9.734  0.00  0.00    +0.142 HD
ENDBRANCH  13  14
BRANCH  13  16
ATOM     16  C   ARG A   1      -1.560  96.852  11.276  0.00  0.00    +0.224 C 
ATOM     17  O   ARG A   1      -1.658  96.114  12.261  0.00  0.00    -0.287 OA
ENDBRANCH  13  16
ENDBRANCH  12  13
ENDBRANCH  11  12
ENDBRANCH  10  11
ENDBRANCH   1  10
TORSDOF 6
REMARK  Name = ../refined-set-2016/1ucn/1ucn_pocket.pdb
REMARK  150 active torsions:
REMARK  status: ('A' for Active; 'I' for Inactive)
REMARK    1  A    between atoms: _1  and  _3
REMARK    2  A    between atoms: _3  and  _4
REMARK    3  A    between atoms: _3  and  _6
REMARK    4  A    between atoms: _6  and  _7
REMARK    5  A    between atoms: _7  and  _8
REMARK    6  A    between atoms: _8  and  _9
REMARK    7  A    between atoms: _9  and  _10
REMARK    8  A    between atoms: _14  and  _16
REMARK    9  A    between atoms: _16  and  _17
REMARK   10  A    between atoms: _16  and  _19
REMARK   11  A    between atoms: _19  and  _20
REMARK   12  A    between atoms: _23  and  _25
REMARK   13  A    between atoms: _25  and  _26
REMARK   14  A    between atoms: _25  and  _28
REMARK   15  A    between atoms: _28  and  _29
REMARK   16  A    between atoms: _34  and  _36
REMARK   17  A    between atoms: _36  and  _37
REMARK   18  A    between atoms: _36  and  _39
REMARK   19  A    between atoms: _39  and  _40
REMARK   20  A    between atoms: _45  and  _46
REMARK   21  A    between atoms: _48  and  _50
REMARK   22  A    between atoms: _50  and  _51
REMARK   23  A    between atoms: _50  and  _53
REMARK   24  A    between atoms: _53  and  _54
REMARK   25  A    between atoms: _57  and  _59
REMARK   26  A    between atoms: _59  and  _60
REMARK   27  A    between atoms: _59  and  _62
REMARK   28  A    between atoms: _62  and  _63
REMARK   29  A    between atoms: _66  and  _68
REMARK   30  A    between atoms: _68  and  _69
REMARK   31  A    between atoms: _68  and  _71
REMARK   32  A    between atoms: _71  and  _72
REMARK   33  A    between atoms: _72  and  _73
REMARK   34  A    between atoms: _73  and  _74
REMARK   35  A    between atoms: _84  and  _85
REMARK   36  A    between atoms: _90  and  _92
REMARK   37  A    between atoms: _92  and  _93
REMARK   38  A    between atoms: _92  and  _95
REMARK   39  A    between atoms: _95  and  _96
REMARK   40  A    between atoms: _106  and  _108
REMARK   41  A    between atoms: _108  and  _109
REMARK   42  A    between atoms: _108  and  _111
REMARK   43  A    between atoms: _111  and  _112
REMARK   44  A    between atoms: _118  and  _120
REMARK   45  A    between atoms: _120  and  _121
REMARK   46  A    between atoms: _123  and  _125
REMARK   47  A    between atoms: _125  and  _126
REMARK   48  A    between atoms: _125  and  _128
REMARK   49  A    between atoms: _128  and  _129
REMARK   50  A    between atoms: _132  and  _134
REMARK   51  A    between atoms: _134  and  _135
REMARK   52  A    between atoms: _134  and  _137
REMARK   53  A    between atoms: _140  and  _142
REMARK   54  A    between atoms: _142  and  _143
REMARK   55  A    between atoms: _142  and  _145
REMARK   56  A    between atoms: _145  and  _146
REMARK   57  A    between atoms: _151  and  _152
REMARK   58  A    between atoms: _154  and  _156
REMARK   59  A    between atoms: _156  and  _157
REMARK   60  A    between atoms: _156  and  _159
REMARK   61  A    between atoms: _159  and  _160
REMARK   62  A    between atoms: _160  and  _161
REMARK   63  A    between atoms: _163  and  _165
REMARK   64  A    between atoms: _165  and  _166
REMARK   65  A    between atoms: _165  and  _168
REMARK   66  A    between atoms: _168  and  _169
REMARK   67  A    between atoms: _169  and  _170
REMARK   68  A    between atoms: _170  and  _171
REMARK   69  A    between atoms: _180  and  _182
REMARK   70  A    between atoms: _182  and  _183
REMARK   71  A    between atoms: _182  and  _185
REMARK   72  A    between atoms: _185  and  _186
REMARK   73  A    between atoms: _189  and  _191
REMARK   74  A    between atoms: _191  and  _192
REMARK   75  A    between atoms: _194  and  _196
REMARK   76  A    between atoms: _196  and  _197
REMARK   77  A    between atoms: _196  and  _199
REMARK   78  A    between atoms: _199  and  _200
REMARK   79  A    between atoms: _200  and  _201
REMARK   80  A    between atoms: _204  and  _206
REMARK   81  A    between atoms: _206  and  _207
REMARK   82  A    between atoms: _206  and  _209
REMARK   83  A    between atoms: _209  and  _210
REMARK   84  A    between atoms: _213  and  _215
REMARK   85  A    between atoms: _215  and  _216
REMARK   86  A    between atoms: _215  and  _218
REMARK   87  A    between atoms: _218  and  _219
REMARK   88  A    between atoms: _225  and  _226
REMARK   89  A    between atoms: _231  and  _233
REMARK   90  A    between atoms: _233  and  _234
REMARK   91  A    between atoms: _233  and  _236
REMARK   92  A    between atoms: _236  and  _237
REMARK   93  A    between atoms: _239  and  _241
REMARK   94  A    between atoms: _241  and  _242
REMARK   95  A    between atoms: _241  and  _244
REMARK   96  A    between atoms: _244  and  _245
REMARK   97  A    between atoms: _245  and  _246
REMARK   98  A    between atoms: _246  and  _247
REMARK   99  A    between atoms: _256  and  _258
REMARK  100  A    between atoms: _258  and  _259
REMARK  101  A    between atoms: _258  and  _261
REMARK  102  A    between atoms: _261  and  _262
REMARK  103  A    between atoms: _262  and  _263
REMARK  104  A    between atoms: _268  and  _270
REMARK  105  A    between atoms: _270  and  _271
REMARK  106  A    between atoms: _270  and  _273
REMARK  107  A    between atoms: _276  and  _278
REMARK  108  A    between atoms: _278  and  _279
REMARK  109  A    between atoms: _281  and  _283
REMARK  110  A    between atoms: _283  and  _284
REMARK  111  A    between atoms: _283  and  _286
REMARK  112  A    between atoms: _286  and  _287
REMARK  113  A    between atoms: _287  and  _288
REMARK  114  A    between atoms: _288  and  _289
REMARK  115  A    between atoms: _298  and  _300
REMARK  116  A    between atoms: _300  and  _301
REMARK  117  A    between atoms: _300  and  _303
REMARK  118  A    between atoms: _303  and  _304
REMARK  119  A    between atoms: _309  and  _311
REMARK  120  A    between atoms: _311  and  _312
REMARK  121  A    between atoms: _311  and  _314
REMARK  122  A    between atoms: _314  and  _315
REMARK  123  A    between atoms: _318  and  _320
REMARK  124  A    between atoms: _320  and  _321
REMARK  125  A    between atoms: _320  and  _323
REMARK  126  A    between atoms: _323  and  _324
REMARK  127  A    between atoms: _327  and  _329
REMARK  128  A    between atoms: _329  and  _330
REMARK  129  A    between atoms: _332  and  _334
REMARK  130  A    between atoms: _334  and  _335
REMARK  131  A    between atoms: _337  and  _339
REMARK  132  A    between atoms: _339  and  _340
REMARK  133  A    between atoms: _339  and  _342
REMARK  134  A    between atoms: _342  and  _343
REMARK  135  A    between atoms: _345  and  _347
REMARK  136  A    between atoms: _347  and  _348
REMARK  137  A    between atoms: _347  and  _350
REMARK  138  A    between atoms: _350  and  _351
REMARK  139  A    between atoms: _351  and  _353
REMARK  140  A    between atoms: _353  and  CA_375
REMARK  141  A    between atoms: _354  and  _356
REMARK  142  A    between atoms: _356  and  _357
REMARK  143  A    between atoms: _356  and  _359
REMARK  144  A    between atoms: _359  and  _360
REMARK  145  A    between atoms: _360  and  _361
REMARK  146  A    between atoms: _364  and  _366
REMARK  147  A    between atoms: _366  and  _367
REMARK  148  A    between atoms: _366  and  _369
REMARK  149  A    between atoms: _369  and  _370
REMARK  150  A    between atoms: _370  and  _371
REMARK                            x       y       z     vdW  Elec       q    Type
REMARK                         _______ _______ _______ _____ _____    ______ ____
ROOT
ATOM      1  C   GLU A   3      -4.843  92.087  16.366  0.00  0.00    +0.241 C 
ATOM      2  O   GLU A   3      -4.228  92.481  17.360  0.00  0.00    -0.273 OA
ATOM      3  N   THR A   4      -6.169  92.138  16.268  0.00  0.00    -0.295 N 
ATOM      4  H   THR A   4      -6.624  91.789  15.401  0.00  0.00    +0.150 HD
ENDROOT
BRANCH   3   5
ATOM      5  CA  THR A   4      -7.002  92.668  17.338  0.00  0.00    +0.176 C 
BRANCH   5   6
ATOM      6  C   THR A   4      -6.763  91.883  18.626  0.00  0.00    +0.243 C 
ATOM      7  O   THR A   4      -6.664  92.461  19.713  0.00  0.00    -0.273 OA
ATOM      8  N   ASN A   5      -6.692  90.562  18.493  0.00  0.00    -0.297 N 
ATOM      9  H   ASN A   5      -6.824  90.138  17.553  0.00  0.00    +0.150 HD
BRANCH   8  10
ATOM     10  CA  ASN A   5      -6.434  89.698  19.631  0.00  0.00    +0.158 C 
BRANCH  10  11
ATOM     11  C   ASN A   5      -4.920  89.518  19.725  0.00  0.00    +0.244 C 
ATOM     12  N   PRO A   6      -4.313  89.939  20.845  0.00  0.00    -0.273 N 
ATOM     13  CD  PRO A   6      -4.940  90.574  22.016  0.00  0.00    +0.094 C 
ATOM     14  CG  PRO A   6      -3.761  91.250  22.683  0.00  0.00    +0.024 C 
ATOM     15  CB  PRO A   6      -2.667  90.254  22.485  0.00  0.00    +0.030 C 
ATOM     16  CA  PRO A   6      -2.864  89.811  21.035  0.00  0.00    +0.140 C 
ATOM     17  O   ASN A   5      -4.294  89.011  18.793  0.00  0.00    -0.273 OA
BRANCH  16  18
ATOM     18  C   PRO A   6      -2.390  88.374  20.798  0.00  0.00    +0.227 C 
ATOM     19  O   PRO A   6      -1.319  88.144  20.246  0.00  0.00    -0.286 OA
ENDBRANCH  16  18
ENDBRANCH  10  11
BRANCH  10  20
ATOM     20  CB  ASN A   5      -7.085  88.330  19.437  0.00  0.00    +0.114 C 
BRANCH  20  21
ATOM     21  CG  ASN A   5      -7.022  87.481  20.690  0.00  0.00    +0.222 C 
ATOM     22  OD1 ASN A   5      -6.057  87.553  21.456  0.00  0.00    -0.275 OA
ATOM     23  ND2 ASN A   5      -8.048  86.666  20.906  0.00  0.00    -0.329 N 
ATOM     24 HD21 ASN A   5      -8.059  86.056  21.748  0.00  0.00    +0.145 HD
ATOM     25 HD22 ASN A   5      -8.841  86.638  20.233  0.00  0.00    +0.145 HD
ENDBRANCH  20  21
ENDBRANCH  10  20
ENDBRANCH   8  10
ENDBRANCH   5   6
BRANCH   5  26
ATOM     26  CB  THR A   4      -8.499  92.577  16.975  0.00  0.00    +0.137 C 
ATOM     27  CG2 THR A   4      -9.342  93.233  18.057  0.00  0.00    +0.034 C 
BRANCH  26  28
ATOM     28  OG1 THR A   4      -8.732  93.236  15.720  0.00  0.00    -0.382 OA
ATOM     29  HG1 THR A   4      -8.468  94.187  15.794  0.00  0.00    +0.210 HD
ENDBRANCH  26  28
ENDBRANCH   5  26
ENDBRANCH   3   5
BRANCH   1  30
ATOM     30  CA  GLU A   3      -4.111  91.508  15.157  0.00  0.00    +0.149 C 
BRANCH  30  33
ATOM     31  C   GLY A   2      -2.307  93.146  15.170  0.00  0.00    +0.243 C 
ATOM     32  O   GLY A   2      -3.082  94.075  15.403  0.00  0.00    -0.273 OA
ATOM     33  N   GLU A   3      -2.706  91.885  15.051  0.00  0.00    -0.297 N 
ATOM     34  H   GLU A   3      -1.996  91.145  14.877  0.00  0.00    +0.150 HD
BRANCH  31  35
ATOM     35  CA  GLY A   2      -0.822  93.412  15.021  0.00  0.00    +0.176 C 
BRANCH  35  38
ATOM     36  C   LEU A   1      -0.259  95.571  15.965  0.00  0.00    +0.238 C 
ATOM     37  O   LEU A   1      -0.100  95.101  17.090  0.00  0.00    -0.274 OA
ATOM     38  N   GLY A   2      -0.590  94.838  14.906  0.00  0.00    -0.296 N 
ATOM     39  H   GLY A   2      -0.684  95.297  13.977  0.00  0.00    +0.150 HD
BRANCH  36  40
ATOM     40  CA  LEU A   1      -0.061  97.060  15.711  0.00  0.00    +0.145 C 
BRANCH  40  41
ATOM     41  N   LEU A   1       0.605  97.263  14.431  0.00  0.00    -0.238 NA
ATOM     42  H   LEU A   1       0.055  97.576  13.606  0.00  0.00    +0.142 HD
ENDBRANCH  40  41
BRANCH  40  43
ATOM     43  CB  LEU A   1      -1.419  97.775  15.739  0.00  0.00    +0.026 C 
BRANCH  43  44
ATOM     44  CG  LEU A   1      -1.425  99.265  16.092  0.00  0.00    +0.002 C 
ATOM     45  CD2 LEU A   1      -2.857  99.785  16.073  0.00  0.00    +0.000 C 
ATOM     46  CD1 LEU A   1      -0.570 100.039  15.108  0.00  0.00    +0.000 C 
ENDBRANCH  43  44
ENDBRANCH  40  43
ENDBRANCH  36  40
ENDBRANCH  35  38
ENDBRANCH  31  35
ENDBRANCH  30  33
BRANCH  30  47
ATOM     47  CB  GLU A   3      -4.236  89.984  15.159  0.00  0.00    +0.041 C 
BRANCH  47  48
ATOM     48  CG  GLU A   3      -3.663  89.322  13.912  0.00  0.00    +0.116 C 
BRANCH  48  49
ATOM     49  CD  GLU A   3      -4.339  89.795  12.633  0.00  0.00    +0.365 C 
ATOM     50  OE2 GLU A   3      -5.304  90.589  12.723  0.00  0.00    -0.246 OA
ATOM     51  OE1 GLU A   3      -3.906  89.370  11.537  0.00  0.00    -0.246 OA
ENDBRANCH  48  49
ENDBRANCH  47  48
ENDBRANCH  30  47
ENDBRANCH   1  30
TORSDOF 20
REMARK  Name = ../refined-set-2016/1ucn/1ucn_pocket.pdb
REMARK  150 active torsions:
REMARK  status: ('A' for Active; 'I' for Inactive)
REMARK    1  A    between atoms: _1  and  _3
REMARK    2  A    between atoms: _3  and  _4
REMARK    3  A    between atoms: _3  and  _6
REMARK    4  A    between atoms: _6  and  _7
REMARK    5  A    between atoms: _7  and  _8
REMARK    6  A    between atoms: _8  and  _9
REMARK    7  A    between atoms: _9  and  _10
REMARK    8  A    between atoms: _14  and  _16
REMARK    9  A    between atoms: _16  and  _17
REMARK   10  A    between atoms: _16  and  _19
REMARK   11  A    between atoms: _19  and  _20
REMARK   12  A    between atoms: _23  and  _25
REMARK   13  A    between atoms: _25  and  _26
REMARK   14  A    between atoms: _25  and  _28
REMARK   15  A    between atoms: _28  and  _29
REMARK   16  A    between atoms: _34  and  _36
REMARK   17  A    between atoms: _36  and  _37
REMARK   18  A    between atoms: _36  and  _39
REMARK   19  A    between atoms: _39  and  _40
REMARK   20  A    between atoms: _45  and  _46
REMARK   21  A    between atoms: _48  and  _50
REMARK   22  A    between atoms: _50  and  _51
REMARK   23  A    between atoms: _50  and  _53
REMARK   24  A    between atoms: _53  and  _54
REMARK   25  A    between atoms: _57  and  _59
REMARK   26  A    between atoms: _59  and  _60
REMARK   27  A    between atoms: _59  and  _62
REMARK   28  A    between atoms: _62  and  _63
REMARK   29  A    between atoms: _66  and  _68
REMARK   30  A    between atoms: _68  and  _69
REMARK   31  A    between atoms: _68  and  _71
REMARK   32  A    between atoms: _71  and  _72
REMARK   33  A    between atoms: _72  and  _73
REMARK   34  A    between atoms: _73  and  _74
REMARK   35  A    between atoms: _84  and  _85
REMARK   36  A    between atoms: _90  and  _92
REMARK   37  A    between atoms: _92  and  _93
REMARK   38  A    between atoms: _92  and  _95
REMARK   39  A    between atoms: _95  and  _96
REMARK   40  A    between atoms: _106  and  _108
REMARK   41  A    between atoms: _108  and  _109
REMARK   42  A    between atoms: _108  and  _111
REMARK   43  A    between atoms: _111  and  _112
REMARK   44  A    between atoms: _118  and  _120
REMARK   45  A    between atoms: _120  and  _121
REMARK   46  A    between atoms: _123  and  _125
REMARK   47  A    between atoms: _125  and  _126
REMARK   48  A    between atoms: _125  and  _128
REMARK   49  A    between atoms: _128  and  _129
REMARK   50  A    between atoms: _132  and  _134
REMARK   51  A    between atoms: _134  and  _135
REMARK   52  A    between atoms: _134  and  _137
REMARK   53  A    between atoms: _140  and  _142
REMARK   54  A    between atoms: _142  and  _143
REMARK   55  A    between atoms: _142  and  _145
REMARK   56  A    between atoms: _145  and  _146
REMARK   57  A    between atoms: _151  and  _152
REMARK   58  A    between atoms: _154  and  _156
REMARK   59  A    between atoms: _156  and  _157
REMARK   60  A    between atoms: _156  and  _159
REMARK   61  A    between atoms: _159  and  _160
REMARK   62  A    between atoms: _160  and  _161
REMARK   63  A    between atoms: _163  and  _165
REMARK   64  A    between atoms: _165  and  _166
REMARK   65  A    between atoms: _165  and  _168
REMARK   66  A    between atoms: _168  and  _169
REMARK   67  A    between atoms: _169  and  _170
REMARK   68  A    between atoms: _170  and  _171
REMARK   69  A    between atoms: _180  and  _182
REMARK   70  A    between atoms: _182  and  _183
REMARK   71  A    between atoms: _182  and  _185
REMARK   72  A    between atoms: _185  and  _186
REMARK   73  A    between atoms: _189  and  _191
REMARK   74  A    between atoms: _191  and  _192
REMARK   75  A    between atoms: _194  and  _196
REMARK   76  A    between atoms: _196  and  _197
REMARK   77  A    between atoms: _196  and  _199
REMARK   78  A    between atoms: _199  and  _200
REMARK   79  A    between atoms: _200  and  _201
REMARK   80  A    between atoms: _204  and  _206
REMARK   81  A    between atoms: _206  and  _207
REMARK   82  A    between atoms: _206  and  _209
REMARK   83  A    between atoms: _209  and  _210
REMARK   84  A    between atoms: _213  and  _215
REMARK   85  A    between atoms: _215  and  _216
REMARK   86  A    between atoms: _215  and  _218
REMARK   87  A    between atoms: _218  and  _219
REMARK   88  A    between atoms: _225  and  _226
REMARK   89  A    between atoms: _231  and  _233
REMARK   90  A    between atoms: _233  and  _234
REMARK   91  A    between atoms: _233  and  _236
REMARK   92  A    between atoms: _236  and  _237
REMARK   93  A    between atoms: _239  and  _241
REMARK   94  A    between atoms: _241  and  _242
REMARK   95  A    between atoms: _241  and  _244
REMARK   96  A    between atoms: _244  and  _245
REMARK   97  A    between atoms: _245  and  _246
REMARK   98  A    between atoms: _246  and  _247
REMARK   99  A    between atoms: _256  and  _258
REMARK  100  A    between atoms: _258  and  _259
REMARK  101  A    between atoms: _258  and  _261
REMARK  102  A    between atoms: _261  and  _262
REMARK  103  A    between atoms: _262  and  _263
REMARK  104  A    between atoms: _268  and  _270
REMARK  105  A    between atoms: _270  and  _271
REMARK  106  A    between atoms: _270  and  _273
REMARK  107  A    between atoms: _276  and  _278
REMARK  108  A    between atoms: _278  and  _279
REMARK  109  A    between atoms: _281  and  _283
REMARK  110  A    between atoms: _283  and  _284
REMARK  111  A    between atoms: _283  and  _286
REMARK  112  A    between atoms: _286  and  _287
REMARK  113  A    between atoms: _287  and  _288
REMARK  114  A    between atoms: _288  and  _289
REMARK  115  A    between atoms: _298  and  _300
REMARK  116  A    between atoms: _300  and  _301
REMARK  117  A    between atoms: _300  and  _303
REMARK  118  A    between atoms: _303  and  _304
REMARK  119  A    between atoms: _309  and  _311
REMARK  120  A    between atoms: _311  and  _312
REMARK  121  A    between atoms: _311  and  _314
REMARK  122  A    between atoms: _314  and  _315
REMARK  123  A    between atoms: _318  and  _320
REMARK  124  A    between atoms: _320  and  _321
REMARK  125  A    between atoms: _320  and  _323
REMARK  126  A    between atoms: _323  and  _324
REMARK  127  A    between atoms: _327  and  _329
REMARK  128  A    between atoms: _329  and  _330
REMARK  129  A    between atoms: _332  and  _334
REMARK  130  A    between atoms: _334  and  _335
REMARK  131  A    between atoms: _337  and  _339
REMARK  132  A    between atoms: _339  and  _340
REMARK  133  A    between atoms: _339  and  _342
REMARK  134  A    between atoms: _342  and  _343
REMARK  135  A    between atoms: _345  and  _347
REMARK  136  A    between atoms: _347  and  _348
REMARK  137  A    between atoms: _347  and  _350
REMARK  138  A    between atoms: _350  and  _351
REMARK  139  A    between atoms: _351  and  _353
REMARK  140  A    between atoms: _353  and  CA_375
REMARK  141  A    between atoms: _354  and  _356
REMARK  142  A    between atoms: _356  and  _357
REMARK  143  A    between atoms: _356  and  _359
REMARK  144  A    between atoms: _359  and  _360
REMARK  145  A    between atoms: _360  and  _361
REMARK  146  A    between atoms: _364  and  _366
REMARK  147  A    between atoms: _366  and  _367
REMARK  148  A    between atoms: _366  and  _369
REMARK  149  A    between atoms: _369  and  _370
REMARK  150  A    between atoms: _370  and  _371
REMARK                            x       y       z     vdW  Elec       q    Type
REMARK                         _______ _______ _______ _____ _____    ______ ____
ROOT
ATOM      1  CA  SER A   1      -0.483  89.072  16.945  0.00  0.00    +0.163 C 
ENDROOT
BRANCH   1   2
ATOM      2  N   SER A   1      -1.464  88.101  17.431  0.00  0.00    -0.237 NA
ATOM      3  H   SER A   1      -1.764  88.139  18.426  0.00  0.00    +0.142 HD
ENDBRANCH   1   2
BRANCH   1   4
ATOM      4  C   SER A   1       0.910  88.473  16.944  0.00  0.00    +0.227 C 
ATOM      5  O   SER A   1       1.356  87.908  17.942  0.00  0.00    -0.287 OA
ENDBRANCH   1   4
BRANCH   1   6
ATOM      6  CB  SER A   1      -0.497  90.322  17.815  0.00  0.00    +0.162 C 
BRANCH   6   7
ATOM      7  OG  SER A   1      -1.767  90.941  17.752  0.00  0.00    -0.380 OA
ATOM      8  H   SER A   1      -2.457  90.310  18.077  0.00  0.00    +0.211 HD
ENDBRANCH   6   7
ENDBRANCH   1   6
TORSDOF 4
REMARK  Name = ../refined-set-2016/1ucn/1ucn_pocket.pdb
REMARK  150 active torsions:
REMARK  status: ('A' for Active; 'I' for Inactive)
REMARK    1  A    between atoms: _1  and  _3
REMARK    2  A    between atoms: _3  and  _4
REMARK    3  A    between atoms: _3  and  _6
REMARK    4  A    between atoms: _6  and  _7
REMARK    5  A    between atoms: _7  and  _8
REMARK    6  A    between atoms: _8  and  _9
REMARK    7  A    between atoms: _9  and  _10
REMARK    8  A    between atoms: _14  and  _16
REMARK    9  A    between atoms: _16  and  _17
REMARK   10  A    between atoms: _16  and  _19
REMARK   11  A    between atoms: _19  and  _20
REMARK   12  A    between atoms: _23  and  _25
REMARK   13  A    between atoms: _25  and  _26
REMARK   14  A    between atoms: _25  and  _28
REMARK   15  A    between atoms: _28  and  _29
REMARK   16  A    between atoms: _34  and  _36
REMARK   17  A    between atoms: _36  and  _37
REMARK   18  A    between atoms: _36  and  _39
REMARK   19  A    between atoms: _39  and  _40
REMARK   20  A    between atoms: _45  and  _46
REMARK   21  A    between atoms: _48  and  _50
REMARK   22  A    between atoms: _50  and  _51
REMARK   23  A    between atoms: _50  and  _53
REMARK   24  A    between atoms: _53  and  _54
REMARK   25  A    between atoms: _57  and  _59
REMARK   26  A    between atoms: _59  and  _60
REMARK   27  A    between atoms: _59  and  _62
REMARK   28  A    between atoms: _62  and  _63
REMARK   29  A    between atoms: _66  and  _68
REMARK   30  A    between atoms: _68  and  _69
REMARK   31  A    between atoms: _68  and  _71
REMARK   32  A    between atoms: _71  and  _72
REMARK   33  A    between atoms: _72  and  _73
REMARK   34  A    between atoms: _73  and  _74
REMARK   35  A    between atoms: _84  and  _85
REMARK   36  A    between atoms: _90  and  _92
REMARK   37  A    between atoms: _92  and  _93
REMARK   38  A    between atoms: _92  and  _95
REMARK   39  A    between atoms: _95  and  _96
REMARK   40  A    between atoms: _106  and  _108
REMARK   41  A    between atoms: _108  and  _109
REMARK   42  A    between atoms: _108  and  _111
REMARK   43  A    between atoms: _111  and  _112
REMARK   44  A    between atoms: _118  and  _120
REMARK   45  A    between atoms: _120  and  _121
REMARK   46  A    between atoms: _123  and  _125
REMARK   47  A    between atoms: _125  and  _126
REMARK   48  A    between atoms: _125  and  _128
REMARK   49  A    between atoms: _128  and  _129
REMARK   50  A    between atoms: _132  and  _134
REMARK   51  A    between atoms: _134  and  _135
REMARK   52  A    between atoms: _134  and  _137
REMARK   53  A    between atoms: _140  and  _142
REMARK   54  A    between atoms: _142  and  _143
REMARK   55  A    between atoms: _142  and  _145
REMARK   56  A    between atoms: _145  and  _146
REMARK   57  A    between atoms: _151  and  _152
REMARK   58  A    between atoms: _154  and  _156
REMARK   59  A    between atoms: _156  and  _157
REMARK   60  A    between atoms: _156  and  _159
REMARK   61  A    between atoms: _159  and  _160
REMARK   62  A    between atoms: _160  and  _161
REMARK   63  A    between atoms: _163  and  _165
REMARK   64  A    between atoms: _165  and  _166
REMARK   65  A    between atoms: _165  and  _168
REMARK   66  A    between atoms: _168  and  _169
REMARK   67  A    between atoms: _169  and  _170
REMARK   68  A    between atoms: _170  and  _171
REMARK   69  A    between atoms: _180  and  _182
REMARK   70  A    between atoms: _182  and  _183
REMARK   71  A    between atoms: _182  and  _185
REMARK   72  A    between atoms: _185  and  _186
REMARK   73  A    between atoms: _189  and  _191
REMARK   74  A    between atoms: _191  and  _192
REMARK   75  A    between atoms: _194  and  _196
REMARK   76  A    between atoms: _196  and  _197
REMARK   77  A    between atoms: _196  and  _199
REMARK   78  A    between atoms: _199  and  _200
REMARK   79  A    between atoms: _200  and  _201
REMARK   80  A    between atoms: _204  and  _206
REMARK   81  A    between atoms: _206  and  _207
REMARK   82  A    between atoms: _206  and  _209
REMARK   83  A    between atoms: _209  and  _210
REMARK   84  A    between atoms: _213  and  _215
REMARK   85  A    between atoms: _215  and  _216
REMARK   86  A    between atoms: _215  and  _218
REMARK   87  A    between atoms: _218  and  _219
REMARK   88  A    between atoms: _225  and  _226
REMARK   89  A    between atoms: _231  and  _233
REMARK   90  A    between atoms: _233  and  _234
REMARK   91  A    between atoms: _233  and  _236
REMARK   92  A    between atoms: _236  and  _237
REMARK   93  A    between atoms: _239  and  _241
REMARK   94  A    between atoms: _241  and  _242
REMARK   95  A    between atoms: _241  and  _244
REMARK   96  A    between atoms: _244  and  _245
REMARK   97  A    between atoms: _245  and  _246
REMARK   98  A    between atoms: _246  and  _247
REMARK   99  A    between atoms: _256  and  _258
REMARK  100  A    between atoms: _258  and  _259
REMARK  101  A    between atoms: _258  and  _261
REMARK  102  A    between atoms: _261  and  _262
REMARK  103  A    between atoms: _262  and  _263
REMARK  104  A    between atoms: _268  and  _270
REMARK  105  A    between atoms: _270  and  _271
REMARK  106  A    between atoms: _270  and  _273
REMARK  107  A    between atoms: _276  and  _278
REMARK  108  A    between atoms: _278  and  _279
REMARK  109  A    between atoms: _281  and  _283
REMARK  110  A    between atoms: _283  and  _284
REMARK  111  A    between atoms: _283  and  _286
REMARK  112  A    between atoms: _286  and  _287
REMARK  113  A    between atoms: _287  and  _288
REMARK  114  A    between atoms: _288  and  _289
REMARK  115  A    between atoms: _298  and  _300
REMARK  116  A    between atoms: _300  and  _301
REMARK  117  A    between atoms: _300  and  _303
REMARK  118  A    between atoms: _303  and  _304
REMARK  119  A    between atoms: _309  and  _311
REMARK  120  A    between atoms: _311  and  _312
REMARK  121  A    between atoms: _311  and  _314
REMARK  122  A    between atoms: _314  and  _315
REMARK  123  A    between atoms: _318  and  _320
REMARK  124  A    between atoms: _320  and  _321
REMARK  125  A    between atoms: _320  and  _323
REMARK  126  A    between atoms: _323  and  _324
REMARK  127  A    between atoms: _327  and  _329
REMARK  128  A    between atoms: _329  and  _330
REMARK  129  A    between atoms: _332  and  _334
REMARK  130  A    between atoms: _334  and  _335
REMARK  131  A    between atoms: _337  and  _339
REMARK  132  A    between atoms: _339  and  _340
REMARK  133  A    between atoms: _339  and  _342
REMARK  134  A    between atoms: _342  and  _343
REMARK  135  A    between atoms: _345  and  _347
REMARK  136  A    between atoms: _347  and  _348
REMARK  137  A    between atoms: _347  and  _350
REMARK  138  A    between atoms: _350  and  _351
REMARK  139  A    between atoms: _351  and  _353
REMARK  140  A    between atoms: _353  and  CA_375
REMARK  141  A    between atoms: _354  and  _356
REMARK  142  A    between atoms: _356  and  _357
REMARK  143  A    between atoms: _356  and  _359
REMARK  144  A    between atoms: _359  and  _360
REMARK  145  A    between atoms: _360  and  _361
REMARK  146  A    between atoms: _364  and  _366
REMARK  147  A    between atoms: _366  and  _367
REMARK  148  A    between atoms: _366  and  _369
REMARK  149  A    between atoms: _369  and  _370
REMARK  150  A    between atoms: _370  and  _371
REMARK                            x       y       z     vdW  Elec       q    Type
REMARK                         _______ _______ _______ _____ _____    ______ ____
ROOT
ATOM      1  NE  ARG A   1      -3.903  96.022  19.125  0.00  0.00    -0.265 N 
ATOM      2  HE  ARG A   1      -3.767  96.648  19.944  0.00  0.00    +0.259 HD
ATOM      3  CZ  ARG A   1      -4.913  96.278  18.302  0.00  0.00    +0.342 C 
ATOM      4  NH2 ARG A   1      -5.737  97.286  18.551  0.00  0.00    -0.292 N 
ATOM      5 HH21 ARG A   1      -5.593  97.879  19.393  0.00  0.00    +0.255 HD
ATOM      6 HH22 ARG A   1      -6.527  97.484  17.904  0.00  0.00    +0.255 HD
ATOM      7  NH1 ARG A   1      -5.112  95.506  17.242  0.00  0.00    -0.292 N 
ATOM      8 HH11 ARG A   1      -4.478  94.703  17.057  0.00  0.00    +0.255 HD
ATOM      9 HH12 ARG A   1      -5.902  95.704  16.596  0.00  0.00    +0.255 HD
ENDROOT
BRANCH   1  10
ATOM     10  CD  ARG A   1      -2.973  94.912  18.946  0.00  0.00    +0.174 C 
BRANCH  10  11
ATOM     11  CG  ARG A   1      -1.759  95.055  19.835  0.00  0.00    +0.045 C 
BRANCH  11  12
ATOM     12  CB  ARG A   1      -0.936  93.787  19.849  0.00  0.00    +0.029 C 
BRANCH  12  13
ATOM     13  CA  ARG A   1       0.441  93.985  20.477  0.00  0.00    +0.133 C 
BRANCH  13  14
ATOM     14  N   ARG A   1       1.274  94.804  19.602  0.00  0.00    -0.239 NA
ATOM     15  H   ARG A   1       0.963  94.985  18.626  0.00  0.00    +0.142 HD
ENDBRANCH  13  14
BRANCH  13  16
ATOM     16  C   ARG A   1       1.095  92.635  20.748  0.00  0.00    +0.224 C 
ATOM     17  O   ARG A   1       1.016  92.115  21.859  0.00  0.00    -0.287 OA
ENDBRANCH  13  16
ENDBRANCH  12  13
ENDBRANCH  11  12
ENDBRANCH  10  11
ENDBRANCH   1  10
TORSDOF 6
REMARK  Name = ../refined-set-2016/1ucn/1ucn_pocket.pdb
REMARK  150 active torsions:
REMARK  status: ('A' for Active; 'I' for Inactive)
REMARK    1  A    between atoms: _1  and  _3
REMARK    2  A    between atoms: _3  and  _4
REMARK    3  A    between atoms: _3  and  _6
REMARK    4  A    between atoms: _6  and  _7
REMARK    5  A    between atoms: _7  and  _8
REMARK    6  A    between atoms: _8  and  _9
REMARK    7  A    between atoms: _9  and  _10
REMARK    8  A    between atoms: _14  and  _16
REMARK    9  A    between atoms: _16  and  _17
REMARK   10  A    between atoms: _16  and  _19
REMARK   11  A    between atoms: _19  and  _20
REMARK   12  A    between atoms: _23  and  _25
REMARK   13  A    between atoms: _25  and  _26
REMARK   14  A    between atoms: _25  and  _28
REMARK   15  A    between atoms: _28  and  _29
REMARK   16  A    between atoms: _34  and  _36
REMARK   17  A    between atoms: _36  and  _37
REMARK   18  A    between atoms: _36  and  _39
REMARK   19  A    between atoms: _39  and  _40
REMARK   20  A    between atoms: _45  and  _46
REMARK   21  A    between atoms: _48  and  _50
REMARK   22  A    between atoms: _50  and  _51
REMARK   23  A    between atoms: _50  and  _53
REMARK   24  A    between atoms: _53  and  _54
REMARK   25  A    between atoms: _57  and  _59
REMARK   26  A    between atoms: _59  and  _60
REMARK   27  A    between atoms: _59  and  _62
REMARK   28  A    between atoms: _62  and  _63
REMARK   29  A    between atoms: _66  and  _68
REMARK   30  A    between atoms: _68  and  _69
REMARK   31  A    between atoms: _68  and  _71
REMARK   32  A    between atoms: _71  and  _72
REMARK   33  A    between atoms: _72  and  _73
REMARK   34  A    between atoms: _73  and  _74
REMARK   35  A    between atoms: _84  and  _85
REMARK   36  A    between atoms: _90  and  _92
REMARK   37  A    between atoms: _92  and  _93
REMARK   38  A    between atoms: _92  and  _95
REMARK   39  A    between atoms: _95  and  _96
REMARK   40  A    between atoms: _106  and  _108
REMARK   41  A    between atoms: _108  and  _109
REMARK   42  A    between atoms: _108  and  _111
REMARK   43  A    between atoms: _111  and  _112
REMARK   44  A    between atoms: _118  and  _120
REMARK   45  A    between atoms: _120  and  _121
REMARK   46  A    between atoms: _123  and  _125
REMARK   47  A    between atoms: _125  and  _126
REMARK   48  A    between atoms: _125  and  _128
REMARK   49  A    between atoms: _128  and  _129
REMARK   50  A    between atoms: _132  and  _134
REMARK   51  A    between atoms: _134  and  _135
REMARK   52  A    between atoms: _134  and  _137
REMARK   53  A    between atoms: _140  and  _142
REMARK   54  A    between atoms: _142  and  _143
REMARK   55  A    between atoms: _142  and  _145
REMARK   56  A    between atoms: _145  and  _146
REMARK   57  A    between atoms: _151  and  _152
REMARK   58  A    between atoms: _154  and  _156
REMARK   59  A    between atoms: _156  and  _157
REMARK   60  A    between atoms: _156  and  _159
REMARK   61  A    between atoms: _159  and  _160
REMARK   62  A    between atoms: _160  and  _161
REMARK   63  A    between atoms: _163  and  _165
REMARK   64  A    between atoms: _165  and  _166
REMARK   65  A    between atoms: _165  and  _168
REMARK   66  A    between atoms: _168  and  _169
REMARK   67  A    between atoms: _169  and  _170
REMARK   68  A    between atoms: _170  and  _171
REMARK   69  A    between atoms: _180  and  _182
REMARK   70  A    between atoms: _182  and  _183
REMARK   71  A    between atoms: _182  and  _185
REMARK   72  A    between atoms: _185  and  _186
REMARK   73  A    between atoms: _189  and  _191
REMARK   74  A    between atoms: _191  and  _192
REMARK   75  A    between atoms: _194  and  _196
REMARK   76  A    between atoms: _196  and  _197
REMARK   77  A    between atoms: _196  and  _199
REMARK   78  A    between atoms: _199  and  _200
REMARK   79  A    between atoms: _200  and  _201
REMARK   80  A    between atoms: _204  and  _206
REMARK   81  A    between atoms: _206  and  _207
REMARK   82  A    between atoms: _206  and  _209
REMARK   83  A    between atoms: _209  and  _210
REMARK   84  A    between atoms: _213  and  _215
REMARK   85  A    between atoms: _215  and  _216
REMARK   86  A    between atoms: _215  and  _218
REMARK   87  A    between atoms: _218  and  _219
REMARK   88  A    between atoms: _225  and  _226
REMARK   89  A    between atoms: _231  and  _233
REMARK   90  A    between atoms: _233  and  _234
REMARK   91  A    between atoms: _233  and  _236
REMARK   92  A    between atoms: _236  and  _237
REMARK   93  A    between atoms: _239  and  _241
REMARK   94  A    between atoms: _241  and  _242
REMARK   95  A    between atoms: _241  and  _244
REMARK   96  A    between atoms: _244  and  _245
REMARK   97  A    between atoms: _245  and  _246
REMARK   98  A    between atoms: _246  and  _247
REMARK   99  A    between atoms: _256  and  _258
REMARK  100  A    between atoms: _258  and  _259
REMARK  101  A    between atoms: _258  and  _261
REMARK  102  A    between atoms: _261  and  _262
REMARK  103  A    between atoms: _262  and  _263
REMARK  104  A    between atoms: _268  and  _270
REMARK  105  A    between atoms: _270  and  _271
REMARK  106  A    between atoms: _270  and  _273
REMARK  107  A    between atoms: _276  and  _278
REMARK  108  A    between atoms: _278  and  _279
REMARK  109  A    between atoms: _281  and  _283
REMARK  110  A    between atoms: _283  and  _284
REMARK  111  A    between atoms: _283  and  _286
REMARK  112  A    between atoms: _286  and  _287
REMARK  113  A    between atoms: _287  and  _288
REMARK  114  A    between atoms: _288  and  _289
REMARK  115  A    between atoms: _298  and  _300
REMARK  116  A    between atoms: _300  and  _301
REMARK  117  A    between atoms: _300  and  _303
REMARK  118  A    between atoms: _303  and  _304
REMARK  119  A    between atoms: _309  and  _311
REMARK  120  A    between atoms: _311  and  _312
REMARK  121  A    between atoms: _311  and  _314
REMARK  122  A    between atoms: _314  and  _315
REMARK  123  A    between atoms: _318  and  _320
REMARK  124  A    between atoms: _320  and  _321
REMARK  125  A    between atoms: _320  and  _323
REMARK  126  A    between atoms: _323  and  _324
REMARK  127  A    between atoms: _327  and  _329
REMARK  128  A    between atoms: _329  and  _330
REMARK  129  A    between atoms: _332  and  _334
REMARK  130  A    between atoms: _334  and  _335
REMARK  131  A    between atoms: _337  and  _339
REMARK  132  A    between atoms: _339  and  _340
REMARK  133  A    between atoms: _339  and  _342
REMARK  134  A    between atoms: _342  and  _343
REMARK  135  A    between atoms: _345  and  _347
REMARK  136  A    between atoms: _347  and  _348
REMARK  137  A    between atoms: _347  and  _350
REMARK  138  A    between atoms: _350  and  _351
REMARK  139  A    between atoms: _351  and  _353
REMARK  140  A    between atoms: _353  and  CA_375
REMARK  141  A    between atoms: _354  and  _356
REMARK  142  A    between atoms: _356  and  _357
REMARK  143  A    between atoms: _356  and  _359
REMARK  144  A    between atoms: _359  and  _360
REMARK  145  A    between atoms: _360  and  _361
REMARK  146  A    between atoms: _364  and  _366
REMARK  147  A    between atoms: _366  and  _367
REMARK  148  A    between atoms: _366  and  _369
REMARK  149  A    between atoms: _369  and  _370
REMARK  150  A    between atoms: _370  and  _371
REMARK                            x       y       z     vdW  Elec       q    Type
REMARK                         _______ _______ _______ _____ _____    ______ ____
ROOT
ATOM      1  CA  ASN A   5      -4.532  95.334  23.836  0.00  0.00    +0.000 C 
ENDROOT
BRANCH   1   2
ATOM      2  C   ASN A   5      -3.750  96.617  23.548  0.00  0.00    +0.000 C 
ATOM      3  N   ILE A   6      -3.532  97.400  24.605  0.00  0.00    +0.000 N 
ATOM      4  H   ILE A   6      -3.962  97.108  25.506  0.00  0.00    +0.000 HD
ATOM      5  O   ASN A   5      -3.381  96.884  22.409  0.00  0.00    +0.000 OA
BRANCH   3   6
ATOM      6  CA  ILE A   6      -2.740  98.637  24.615  0.00  0.00    +0.000 C 
BRANCH   6   7
ATOM      7  C   ILE A   6      -2.788  99.694  23.507  0.00  0.00    +0.000 C 
ATOM      8  O   ILE A   6      -2.328 100.816  23.717  0.00  0.00    +0.000 OA
ATOM      9  N   ILE A   7      -3.318  99.366  22.341  0.00  0.00    +0.000 N 
ATOM     10  H   ILE A   7      -3.728  98.421  22.197  0.00  0.00    +0.000 HD
BRANCH   9  11
ATOM     11  CA  ILE A   7      -3.321 100.339  21.266  0.00  0.00    +0.000 C 
BRANCH  11  12
ATOM     12  C   ILE A   7      -4.420 100.064  20.253  0.00  0.00    +0.000 C 
ATOM     13  O   ILE A   7      -4.942  98.953  20.173  0.00  0.00    +0.000 OA
ATOM     14  N   GLY A   8      -4.759 101.094  19.485  0.00  0.00    +0.000 N 
ATOM     15  H   GLY A   8      -4.283 102.008  19.627  0.00  0.00    +0.000 HD
BRANCH  14  16
ATOM     16  CA  GLY A   8      -5.773 100.981  18.456  0.00  0.00    +0.000 C 
BRANCH  16  17
ATOM     17  C   GLY A   8      -5.484 102.008  17.375  0.00  0.00    +0.000 C 
ATOM     18  O   GLY A   8      -4.750 102.970  17.611  0.00  0.00    +0.000 OA
ATOM     19  N   GLY A   9      -6.048 101.806  16.190  0.00  0.00    +0.000 N 
ATOM     20  H   GLY A   9      -6.654 100.974  16.040  0.00  0.00    +0.000 HD
BRANCH  19  21
ATOM     21  CA  GLY A   9      -5.822 102.741  15.103  0.00  0.00    +0.000 C 
BRANCH  21  22
ATOM     22  C   GLY A   9      -7.029 102.866  14.197  0.00  0.00    +0.000 C 
ATOM     23  O   GLY A   9      -8.147 102.532  14.595  0.00  0.00    +0.000 OA
ATOM     24  N   SER A  10      -6.805 103.360  12.982  0.00  0.00    +0.000 N 
ATOM     25  H   SER A  10      -5.837 103.638  12.722  0.00  0.00    +0.000 HD
BRANCH  24  26
ATOM     26  CA  SER A  10      -7.874 103.523  12.005  0.00  0.00    +0.000 C 
BRANCH  26  27
ATOM     27  C   SER A  10      -7.920 102.288  11.116  0.00  0.00    +0.000 C 
ATOM     28  N   UNK A  11      -9.126 101.850  10.772  0.00  0.00    +0.000 N 
ATOM     29  H   UNK A  11      -9.969 102.361  11.104  0.00  0.00    +0.000 HD
ATOM     30  O   SER A  10      -6.878 101.743  10.745  0.00  0.00    +0.000 OA
BRANCH  28  31
ATOM     31  C   UNK A  11      -9.288 100.669   9.939  0.00  0.00    +0.000 C 
BRANCH  31  32
ATOM     32  C   UNK A  11      -9.133 100.964   8.450  0.00  0.00    +0.000 C 
ATOM     33  O   UNK A  11      -8.728 100.095   7.680  0.00  0.00    +0.000 OA
ENDBRANCH  31  32
BRANCH  31  34
ATOM     34  C   UNK A  11     -10.653 100.021  10.208  0.00  0.00    +0.000 C 
BRANCH  34  35
ATOM     35  C   UNK A  11     -10.784  99.500  11.635  0.00  0.00    +0.000 C 
ATOM     36  O   UNK A  11     -11.776  98.791  11.921  0.00  0.00    +0.000 OA
BRANCH  35  37
ATOM     37  O   UNK A  11      -9.900  99.800  12.471  0.00  0.00    +0.000 OA
BRANCH  37  38
ATOM     38 CA   UNK A  11     -10.019 100.128  14.996  0.00  0.00    +0.000 Ca
ATOM     39  O   UNK A  11     -11.282 101.712  16.022  0.00  0.00    +0.000 OA
ENDBRANCH  37  38
ENDBRANCH  35  37
ENDBRANCH  34  35
ENDBRANCH  31  34
ENDBRANCH  28  31
ENDBRANCH  26  27
BRANCH  26  40
ATOM     40  CB  SER A  10      -7.629 104.769  11.147  0.00  0.00    +0.000 C 
BRANCH  40  41
ATOM     41  OG  SER A  10      -7.664 105.944  11.934  0.00  0.00    +0.000 OA
ATOM     42  H   SER A  10      -8.552 106.025  12.365  0.00  0.00    +0.000 HD
ENDBRANCH  40  41
ENDBRANCH  26  40
ENDBRANCH  24  26
ENDBRANCH  21  22
ENDBRANCH  19  21
ENDBRANCH  16  17
ENDBRANCH  14  16
ENDBRANCH  11  12
BRANCH  11  43
ATOM     43  CB  ILE A   7      -1.947 100.316  20.546  0.00  0.00    +0.000 C 
ATOM     44  CG2 ILE A   7      -1.733  98.960  19.907  0.00  0.00    +0.000 C 
BRANCH  43  45
ATOM     45  CG1 ILE A   7      -1.863 101.413  19.485  0.00  0.00    +0.000 C 
ATOM     46  CD1 ILE A   7      -0.533 101.440  18.739  0.00  0.00    +0.000 C 
ENDBRANCH  43  45
ENDBRANCH  11  43
ENDBRANCH   9  11
ENDBRANCH   6   7
BRANCH   6  47
ATOM     47  CB  ILE A   6      -1.240  98.303  24.783  0.00  0.00    +0.000 C 
ATOM     48  CG2 ILE A   6      -1.033  97.418  25.995  0.00  0.00    +0.000 C 
BRANCH  47  49
ATOM     49  CG1 ILE A   6      -0.727  97.595  23.524  0.00  0.00    +0.000 C 
ATOM     50  CD1 ILE A   6       0.765  97.286  23.544  0.00  0.00    +0.000 C 
ENDBRANCH  47  49
ENDBRANCH   6  47
ENDBRANCH   3   6
ENDBRANCH   1   2
BRANCH   1  53
ATOM     51  C   ARG A   4      -5.214  95.055  26.133  0.00  0.00    +0.000 C 
ATOM     52  O   ARG A   4      -4.101  94.635  26.446  0.00  0.00    +0.000 OA
ATOM     53  N   ASN A   5      -5.518  95.435  24.894  0.00  0.00    +0.000 N 
ATOM     54  H   ASN A   5      -6.467  95.806  24.684  0.00  0.00    +0.000 HD
BRANCH  51  55
ATOM     55  CA  ARG A   4      -6.322  95.163  27.170  0.00  0.00    +0.000 C 
BRANCH  55  58
ATOM     56  C   GLY A   3      -8.679  94.589  26.944  0.00  0.00    +0.000 C 
ATOM     57  O   GLY A   3      -9.053  95.589  27.567  0.00  0.00    +0.000 OA
ATOM     58  N   ARG A   4      -7.403  94.308  26.711  0.00  0.00    +0.000 N 
ATOM     59  H   ARG A   4      -7.169  93.445  26.181  0.00  0.00    +0.000 HD
BRANCH  56  60
ATOM     60  CA  GLY A   3      -9.672  93.590  26.395  0.00  0.00    +0.000 C 
BRANCH  60  62
ATOM     61  C   VAL A   2      -8.554  92.688  24.453  0.00  0.00    +0.000 C 
ATOM     62  N   GLY A   3      -9.056  92.496  25.667  0.00  0.00    +0.000 N 
ATOM     63  H   GLY A   3      -9.007  91.552  26.101  0.00  0.00    +0.000 HD
ATOM     64  O   VAL A   2      -8.543  93.787  23.903  0.00  0.00    +0.000 OA
BRANCH  61  65
ATOM     65  CA  VAL A   2      -7.950  91.472  23.763  0.00  0.00    +0.000 C 
BRANCH  65  68
ATOM     66  C   GLN A   1      -6.256  91.039  25.442  0.00  0.00    +0.000 C 
ATOM     67  O   GLN A   1      -5.860  92.204  25.402  0.00  0.00    +0.000 OA
ATOM     68  N   VAL A   2      -7.265  90.595  24.699  0.00  0.00    +0.000 N 
ATOM     69  H   VAL A   2      -7.569  89.605  24.789  0.00  0.00    +0.000 HD
BRANCH  66  70
ATOM     70  CA  GLN A   1      -5.609  90.013  26.371  0.00  0.00    +0.000 C 
BRANCH  70  71
ATOM     71  N   GLN A   1      -4.165  90.129  26.532  0.00  0.00    +0.000 NA
ATOM     72  H   GLN A   1      -3.788  90.812  27.220  0.00  0.00    +0.000 HD
ENDBRANCH  70  71
BRANCH  70  73
ATOM     73  CB  GLN A   1      -6.242  90.071  27.761  0.00  0.00    +0.000 C 
BRANCH  73  74
ATOM     74  CG  GLN A   1      -7.686  89.642  27.833  0.00  0.00    +0.000 C 
BRANCH  74  75
ATOM     75  CD  GLN A   1      -8.183  89.630  29.258  0.00  0.00    +0.000 C 
ATOM     76  OE1 GLN A   1      -8.147  90.650  29.946  0.00  0.00    +0.000 OA
ATOM     77  NE2 GLN A   1      -8.645  88.473  29.714  0.00  0.00    +0.000 N 
ATOM     78 HE21 GLN A   1      -8.996  88.402  30.690  0.00  0.00    +0.000 HD
ATOM     79 HE22 GLN A   1      -8.656  87.637  29.095  0.00  0.00    +0.000 HD
ENDBRANCH  74  75
ENDBRANCH  73  74
ENDBRANCH  70  73
ENDBRANCH  66  70
ENDBRANCH  65  68
BRANCH  65  80
ATOM     80  CB  VAL A   2      -9.056  90.715  22.995  0.00  0.00    +0.000 C 
ATOM     81  CG2 VAL A   2     -10.153  90.257  23.949  0.00  0.00    +0.000 C 
ATOM     82  CG1 VAL A   2      -9.628  91.604  21.920  0.00  0.00    +0.000 C 
ENDBRANCH  65  80
ENDBRANCH  61  65
ENDBRANCH  60  62
ENDBRANCH  56  60
ENDBRANCH  55  58
BRANCH  55  83
ATOM     83  CB  ARG A   4      -5.814  94.677  28.527  0.00  0.00    +0.000 C 
BRANCH  83  84
ATOM     84  CG  ARG A   4      -6.801  94.835  29.679  0.00  0.00    +0.000 C 
BRANCH  84  85
ATOM     85  CD  ARG A   4      -6.839  96.273  30.177  0.00  0.00    +0.000 C 
BRANCH  85  86
ATOM     86  NE  ARG A   4      -7.611  96.426  31.408  0.00  0.00    +0.330 N 
ATOM     87  HE  ARG A   4      -7.086  96.598  32.289  0.00  0.00    +0.000 HD
ATOM     88  CZ  ARG A   4      -8.938  96.361  31.482  0.00  0.00    +0.000 C 
ATOM     89  NH2 ARG A   4      -9.542  96.515  32.655  0.00  0.00    +0.330 N 
ATOM     90 HH21 ARG A   4      -8.978  96.686  33.512  0.00  0.00    +0.000 HD
ATOM     91 HH22 ARG A   4     -10.579  96.465  32.716  0.00  0.00    +0.000 HD
ATOM     92  NH1 ARG A   4      -9.664  96.144  30.388  0.00  0.00    +0.330 N 
ATOM     93 HH11 ARG A   4     -10.701  96.094  30.453  0.00  0.00    +0.000 HD
ATOM     94 HH12 ARG A   4      -9.195  96.024  29.468  0.00  0.00    +0.000 HD
ENDBRANCH  85  86
ENDBRANCH  84  85
ENDBRANCH  83  84
ENDBRANCH  55  83
ENDBRANCH  51  55
ENDBRANCH   1  53
BRANCH   1  95
ATOM     95  CB  ASN A   5      -5.194  94.795  22.569  0.00  0.00    +0.000 C 
BRANCH  95  96
ATOM     96  CG  ASN A   5      -6.323  95.672  22.085  0.00  0.00    +0.000 C 
ATOM     97  OD1 ASN A   5      -6.676  96.653  22.736  0.00  0.00    +0.000 OA
ATOM     98  ND2 ASN A   5      -6.897  95.324  20.938  0.00  0.00    +0.000 N 
ATOM     99 HD21 ASN A   5      -7.680  95.891  20.555  0.00  0.00    +0.000 HD
ATOM    100 HD22 ASN A   5      -6.563  94.485  20.423  0.00  0.00    +0.000 HD
ENDBRANCH  95  96
ENDBRANCH   1  95
TORSDOF 42
REMARK  Name = ../refined-set-2016/1ucn/1ucn_pocket.pdb
REMARK  150 active torsions:
REMARK  status: ('A' for Active; 'I' for Inactive)
REMARK    1  A    between atoms: _1  and  _3
REMARK    2  A    between atoms: _3  and  _4
REMARK    3  A    between atoms: _3  and  _6
REMARK    4  A    between atoms: _6  and  _7
REMARK    5  A    between atoms: _7  and  _8
REMARK    6  A    between atoms: _8  and  _9
REMARK    7  A    between atoms: _9  and  _10
REMARK    8  A    between atoms: _14  and  _16
REMARK    9  A    between atoms: _16  and  _17
REMARK   10  A    between atoms: _16  and  _19
REMARK   11  A    between atoms: _19  and  _20
REMARK   12  A    between atoms: _23  and  _25
REMARK   13  A    between atoms: _25  and  _26
REMARK   14  A    between atoms: _25  and  _28
REMARK   15  A    between atoms: _28  and  _29
REMARK   16  A    between atoms: _34  and  _36
REMARK   17  A    between atoms: _36  and  _37
REMARK   18  A    between atoms: _36  and  _39
REMARK   19  A    between atoms: _39  and  _40
REMARK   20  A    between atoms: _45  and  _46
REMARK   21  A    between atoms: _48  and  _50
REMARK   22  A    between atoms: _50  and  _51
REMARK   23  A    between atoms: _50  and  _53
REMARK   24  A    between atoms: _53  and  _54
REMARK   25  A    between atoms: _57  and  _59
REMARK   26  A    between atoms: _59  and  _60
REMARK   27  A    between atoms: _59  and  _62
REMARK   28  A    between atoms: _62  and  _63
REMARK   29  A    between atoms: _66  and  _68
REMARK   30  A    between atoms: _68  and  _69
REMARK   31  A    between atoms: _68  and  _71
REMARK   32  A    between atoms: _71  and  _72
REMARK   33  A    between atoms: _72  and  _73
REMARK   34  A    between atoms: _73  and  _74
REMARK   35  A    between atoms: _84  and  _85
REMARK   36  A    between atoms: _90  and  _92
REMARK   37  A    between atoms: _92  and  _93
REMARK   38  A    between atoms: _92  and  _95
REMARK   39  A    between atoms: _95  and  _96
REMARK   40  A    between atoms: _106  and  _108
REMARK   41  A    between atoms: _108  and  _109
REMARK   42  A    between atoms: _108  and  _111
REMARK   43  A    between atoms: _111  and  _112
REMARK   44  A    between atoms: _118  and  _120
REMARK   45  A    between atoms: _120  and  _121
REMARK   46  A    between atoms: _123  and  _125
REMARK   47  A    between atoms: _125  and  _126
REMARK   48  A    between atoms: _125  and  _128
REMARK   49  A    between atoms: _128  and  _129
REMARK   50  A    between atoms: _132  and  _134
REMARK   51  A    between atoms: _134  and  _135
REMARK   52  A    between atoms: _134  and  _137
REMARK   53  A    between atoms: _140  and  _142
REMARK   54  A    between atoms: _142  and  _143
REMARK   55  A    between atoms: _142  and  _145
REMARK   56  A    between atoms: _145  and  _146
REMARK   57  A    between atoms: _151  and  _152
REMARK   58  A    between atoms: _154  and  _156
REMARK   59  A    between atoms: _156  and  _157
REMARK   60  A    between atoms: _156  and  _159
REMARK   61  A    between atoms: _159  and  _160
REMARK   62  A    between atoms: _160  and  _161
REMARK   63  A    between atoms: _163  and  _165
REMARK   64  A    between atoms: _165  and  _166
REMARK   65  A    between atoms: _165  and  _168
REMARK   66  A    between atoms: _168  and  _169
REMARK   67  A    between atoms: _169  and  _170
REMARK   68  A    between atoms: _170  and  _171
REMARK   69  A    between atoms: _180  and  _182
REMARK   70  A    between atoms: _182  and  _183
REMARK   71  A    between atoms: _182  and  _185
REMARK   72  A    between atoms: _185  and  _186
REMARK   73  A    between atoms: _189  and  _191
REMARK   74  A    between atoms: _191  and  _192
REMARK   75  A    between atoms: _194  and  _196
REMARK   76  A    between atoms: _196  and  _197
REMARK   77  A    between atoms: _196  and  _199
REMARK   78  A    between atoms: _199  and  _200
REMARK   79  A    between atoms: _200  and  _201
REMARK   80  A    between atoms: _204  and  _206
REMARK   81  A    between atoms: _206  and  _207
REMARK   82  A    between atoms: _206  and  _209
REMARK   83  A    between atoms: _209  and  _210
REMARK   84  A    between atoms: _213  and  _215
REMARK   85  A    between atoms: _215  and  _216
REMARK   86  A    between atoms: _215  and  _218
REMARK   87  A    between atoms: _218  and  _219
REMARK   88  A    between atoms: _225  and  _226
REMARK   89  A    between atoms: _231  and  _233
REMARK   90  A    between atoms: _233  and  _234
REMARK   91  A    between atoms: _233  and  _236
REMARK   92  A    between atoms: _236  and  _237
REMARK   93  A    between atoms: _239  and  _241
REMARK   94  A    between atoms: _241  and  _242
REMARK   95  A    between atoms: _241  and  _244
REMARK   96  A    between atoms: _244  and  _245
REMARK   97  A    between atoms: _245  and  _246
REMARK   98  A    between atoms: _246  and  _247
REMARK   99  A    between atoms: _256  and  _258
REMARK  100  A    between atoms: _258  and  _259
REMARK  101  A    between atoms: _258  and  _261
REMARK  102  A    between atoms: _261  and  _262
REMARK  103  A    between atoms: _262  and  _263
REMARK  104  A    between atoms: _268  and  _270
REMARK  105  A    between atoms: _270  and  _271
REMARK  106  A    between atoms: _270  and  _273
REMARK  107  A    between atoms: _276  and  _278
REMARK  108  A    between atoms: _278  and  _279
REMARK  109  A    between atoms: _281  and  _283
REMARK  110  A    between atoms: _283  and  _284
REMARK  111  A    between atoms: _283  and  _286
REMARK  112  A    between atoms: _286  and  _287
REMARK  113  A    between atoms: _287  and  _288
REMARK  114  A    between atoms: _288  and  _289
REMARK  115  A    between atoms: _298  and  _300
REMARK  116  A    between atoms: _300  and  _301
REMARK  117  A    between atoms: _300  and  _303
REMARK  118  A    between atoms: _303  and  _304
REMARK  119  A    between atoms: _309  and  _311
REMARK  120  A    between atoms: _311  and  _312
REMARK  121  A    between atoms: _311  and  _314
REMARK  122  A    between atoms: _314  and  _315
REMARK  123  A    between atoms: _318  and  _320
REMARK  124  A    between atoms: _320  and  _321
REMARK  125  A    between atoms: _320  and  _323
REMARK  126  A    between atoms: _323  and  _324
REMARK  127  A    between atoms: _327  and  _329
REMARK  128  A    between atoms: _329  and  _330
REMARK  129  A    between atoms: _332  and  _334
REMARK  130  A    between atoms: _334  and  _335
REMARK  131  A    between atoms: _337  and  _339
REMARK  132  A    between atoms: _339  and  _340
REMARK  133  A    between atoms: _339  and  _342
REMARK  134  A    between atoms: _342  and  _343
REMARK  135  A    between atoms: _345  and  _347
REMARK  136  A    between atoms: _347  and  _348
REMARK  137  A    between atoms: _347  and  _350
REMARK  138  A    between atoms: _350  and  _351
REMARK  139  A    between atoms: _351  and  _353
REMARK  140  A    between atoms: _353  and  CA_375
REMARK  141  A    between atoms: _354  and  _356
REMARK  142  A    between atoms: _356  and  _357
REMARK  143  A    between atoms: _356  and  _359
REMARK  144  A    between atoms: _359  and  _360
REMARK  145  A    between atoms: _360  and  _361
REMARK  146  A    between atoms: _364  and  _366
REMARK  147  A    between atoms: _366  and  _367
REMARK  148  A    between atoms: _366  and  _369
REMARK  149  A    between atoms: _369  and  _370
REMARK  150  A    between atoms: _370  and  _371
REMARK                            x       y       z     vdW  Elec       q    Type
REMARK                         _______ _______ _______ _____ _____    ______ ____
ROOT
ATOM      1  CA  GLU A   1     -11.585 109.783  13.190  0.00  0.00    +0.134 C 
ENDROOT
BRANCH   1   2
ATOM      2  N   GLU A   1     -12.058 109.908  11.813  0.00  0.00    -0.239 NA
ATOM      3  H   GLU A   1     -11.760 109.199  11.112  0.00  0.00    +0.142 HD
ENDBRANCH   1   2
BRANCH   1   4
ATOM      4  C   GLU A   1     -10.659 110.926  13.589  0.00  0.00    +0.224 C 
ATOM      5  O   GLU A   1     -10.744 111.437  14.705  0.00  0.00    -0.287 OA
ENDBRANCH   1   4
BRANCH   1   6
ATOM      6  CB  GLU A   1     -10.871 108.440  13.377  0.00  0.00    +0.037 C 
BRANCH   6   7
ATOM      7  CG  GLU A   1     -11.775 107.231  13.160  0.00  0.00    +0.116 C 
BRANCH   7   8
ATOM      8  CD  GLU A   1     -11.027 105.912  13.216  0.00  0.00    +0.365 C 
ATOM      9  OE2 GLU A   1      -9.798 105.933  13.446  0.00  0.00    -0.246 OA
ATOM     10  OE1 GLU A   1     -11.668 104.855  13.029  0.00  0.00    -0.246 OA
ENDBRANCH   7   8
ENDBRANCH   6   7
ENDBRANCH   1   6
TORSDOF 5
REMARK  Name = ../refined-set-2016/1ucn/1ucn_pocket.pdb
REMARK  150 active torsions:
REMARK  status: ('A' for Active; 'I' for Inactive)
REMARK    1  A    between atoms: _1  and  _3
REMARK    2  A    between atoms: _3  and  _4
REMARK    3  A    between atoms: _3  and  _6
REMARK    4  A    between atoms: _6  and  _7
REMARK    5  A    between atoms: _7  and  _8
REMARK    6  A    between atoms: _8  and  _9
REMARK    7  A    between atoms: _9  and  _10
REMARK    8  A    between atoms: _14  and  _16
REMARK    9  A    between atoms: _16  and  _17
REMARK   10  A    between atoms: _16  and  _19
REMARK   11  A    between atoms: _19  and  _20
REMARK   12  A    between atoms: _23  and  _25
REMARK   13  A    between atoms: _25  and  _26
REMARK   14  A    between atoms: _25  and  _28
REMARK   15  A    between atoms: _28  and  _29
REMARK   16  A    between atoms: _34  and  _36
REMARK   17  A    between atoms: _36  and  _37
REMARK   18  A    between atoms: _36  and  _39
REMARK   19  A    between atoms: _39  and  _40
REMARK   20  A    between atoms: _45  and  _46
REMARK   21  A    between atoms: _48  and  _50
REMARK   22  A    between atoms: _50  and  _51
REMARK   23  A    between atoms: _50  and  _53
REMARK   24  A    between atoms: _53  and  _54
REMARK   25  A    between atoms: _57  and  _59
REMARK   26  A    between atoms: _59  and  _60
REMARK   27  A    between atoms: _59  and  _62
REMARK   28  A    between atoms: _62  and  _63
REMARK   29  A    between atoms: _66  and  _68
REMARK   30  A    between atoms: _68  and  _69
REMARK   31  A    between atoms: _68  and  _71
REMARK   32  A    between atoms: _71  and  _72
REMARK   33  A    between atoms: _72  and  _73
REMARK   34  A    between atoms: _73  and  _74
REMARK   35  A    between atoms: _84  and  _85
REMARK   36  A    between atoms: _90  and  _92
REMARK   37  A    between atoms: _92  and  _93
REMARK   38  A    between atoms: _92  and  _95
REMARK   39  A    between atoms: _95  and  _96
REMARK   40  A    between atoms: _106  and  _108
REMARK   41  A    between atoms: _108  and  _109
REMARK   42  A    between atoms: _108  and  _111
REMARK   43  A    between atoms: _111  and  _112
REMARK   44  A    between atoms: _118  and  _120
REMARK   45  A    between atoms: _120  and  _121
REMARK   46  A    between atoms: _123  and  _125
REMARK   47  A    between atoms: _125  and  _126
REMARK   48  A    between atoms: _125  and  _128
REMARK   49  A    between atoms: _128  and  _129
REMARK   50  A    between atoms: _132  and  _134
REMARK   51  A    between atoms: _134  and  _135
REMARK   52  A    between atoms: _134  and  _137
REMARK   53  A    between atoms: _140  and  _142
REMARK   54  A    between atoms: _142  and  _143
REMARK   55  A    between atoms: _142  and  _145
REMARK   56  A    between atoms: _145  and  _146
REMARK   57  A    between atoms: _151  and  _152
REMARK   58  A    between atoms: _154  and  _156
REMARK   59  A    between atoms: _156  and  _157
REMARK   60  A    between atoms: _156  and  _159
REMARK   61  A    between atoms: _159  and  _160
REMARK   62  A    between atoms: _160  and  _161
REMARK   63  A    between atoms: _163  and  _165
REMARK   64  A    between atoms: _165  and  _166
REMARK   65  A    between atoms: _165  and  _168
REMARK   66  A    between atoms: _168  and  _169
REMARK   67  A    between atoms: _169  and  _170
REMARK   68  A    between atoms: _170  and  _171
REMARK   69  A    between atoms: _180  and  _182
REMARK   70  A    between atoms: _182  and  _183
REMARK   71  A    between atoms: _182  and  _185
REMARK   72  A    between atoms: _185  and  _186
REMARK   73  A    between atoms: _189  and  _191
REMARK   74  A    between atoms: _191  and  _192
REMARK   75  A    between atoms: _194  and  _196
REMARK   76  A    between atoms: _196  and  _197
REMARK   77  A    between atoms: _196  and  _199
REMARK   78  A    between atoms: _199  and  _200
REMARK   79  A    between atoms: _200  and  _201
REMARK   80  A    between atoms: _204  and  _206
REMARK   81  A    between atoms: _206  and  _207
REMARK   82  A    between atoms: _206  and  _209
REMARK   83  A    between atoms: _209  and  _210
REMARK   84  A    between atoms: _213  and  _215
REMARK   85  A    between atoms: _215  and  _216
REMARK   86  A    between atoms: _215  and  _218
REMARK   87  A    between atoms: _218  and  _219
REMARK   88  A    between atoms: _225  and  _226
REMARK   89  A    between atoms: _231  and  _233
REMARK   90  A    between atoms: _233  and  _234
REMARK   91  A    between atoms: _233  and  _236
REMARK   92  A    between atoms: _236  and  _237
REMARK   93  A    between atoms: _239  and  _241
REMARK   94  A    between atoms: _241  and  _242
REMARK   95  A    between atoms: _241  and  _244
REMARK   96  A    between atoms: _244  and  _245
REMARK   97  A    between atoms: _245  and  _246
REMARK   98  A    between atoms: _246  and  _247
REMARK   99  A    between atoms: _256  and  _258
REMARK  100  A    between atoms: _258  and  _259
REMARK  101  A    between atoms: _258  and  _261
REMARK  102  A    between atoms: _261  and  _262
REMARK  103  A    between atoms: _262  and  _263
REMARK  104  A    between atoms: _268  and  _270
REMARK  105  A    between atoms: _270  and  _271
REMARK  106  A    between atoms: _270  and  _273
REMARK  107  A    between atoms: _276  and  _278
REMARK  108  A    between atoms: _278  and  _279
REMARK  109  A    between atoms: _281  and  _283
REMARK  110  A    between atoms: _283  and  _284
REMARK  111  A    between atoms: _283  and  _286
REMARK  112  A    between atoms: _286  and  _287
REMARK  113  A    between atoms: _287  and  _288
REMARK  114  A    between atoms: _288  and  _289
REMARK  115  A    between atoms: _298  and  _300
REMARK  116  A    between atoms: _300  and  _301
REMARK  117  A    between atoms: _300  and  _303
REMARK  118  A    between atoms: _303  and  _304
REMARK  119  A    between atoms: _309  and  _311
REMARK  120  A    between atoms: _311  and  _312
REMARK  121  A    between atoms: _311  and  _314
REMARK  122  A    between atoms: _314  and  _315
REMARK  123  A    between atoms: _318  and  _320
REMARK  124  A    between atoms: _320  and  _321
REMARK  125  A    between atoms: _320  and  _323
REMARK  126  A    between atoms: _323  and  _324
REMARK  127  A    between atoms: _327  and  _329
REMARK  128  A    between atoms: _329  and  _330
REMARK  129  A    between atoms: _332  and  _334
REMARK  130  A    between atoms: _334  and  _335
REMARK  131  A    between atoms: _337  and  _339
REMARK  132  A    between atoms: _339  and  _340
REMARK  133  A    between atoms: _339  and  _342
REMARK  134  A    between atoms: _342  and  _343
REMARK  135  A    between atoms: _345  and  _347
REMARK  136  A    between atoms: _347  and  _348
REMARK  137  A    between atoms: _347  and  _350
REMARK  138  A    between atoms: _350  and  _351
REMARK  139  A    between atoms: _351  and  _353
REMARK  140  A    between atoms: _353  and  CA_375
REMARK  141  A    between atoms: _354  and  _356
REMARK  142  A    between atoms: _356  and  _357
REMARK  143  A    between atoms: _356  and  _359
REMARK  144  A    between atoms: _359  and  _360
REMARK  145  A    between atoms: _360  and  _361
REMARK  146  A    between atoms: _364  and  _366
REMARK  147  A    between atoms: _366  and  _367
REMARK  148  A    between atoms: _366  and  _369
REMARK  149  A    between atoms: _369  and  _370
REMARK  150  A    between atoms: _370  and  _371
REMARK                            x       y       z     vdW  Elec       q    Type
REMARK                         _______ _______ _______ _____ _____    ______ ____
ROOT
ATOM      1  CA  GLU A   1      -9.838  92.771  32.279  0.00  0.00    +0.172 C 
ENDROOT
BRANCH   1   2
ATOM      2  C   GLU A   1     -10.558  91.976  33.358  0.00  0.00    +0.380 C 
ATOM      3  OXT GLU A   1     -11.552  92.494  33.905  0.00  0.00    -0.244 OA
ATOM      4  O   GLU A   1     -10.109  90.844  33.648  0.00  0.00    -0.244 OA
ENDBRANCH   1   2
BRANCH   1   5
ATOM      5  N   GLU A   1      -8.590  92.100  31.965  0.00  0.00    -0.236 NA
ATOM      6  H   GLU A   1      -8.544  91.414  31.184  0.00  0.00    +0.142 HD
ENDBRANCH   1   5
BRANCH   1   7
ATOM      7  CB  GLU A   1     -10.711  92.908  31.025  0.00  0.00    +0.040 C 
BRANCH   7   8
ATOM      8  CG  GLU A   1     -11.027  91.613  30.311  0.00  0.00    +0.116 C 
BRANCH   8   9
ATOM      9  CD  GLU A   1     -11.807  91.844  29.028  0.00  0.00    +0.365 C 
ATOM     10  OE2 GLU A   1     -12.904  92.439  29.103  0.00  0.00    -0.246 OA
ATOM     11  OE1 GLU A   1     -11.320  91.433  27.948  0.00  0.00    -0.246 OA
ENDBRANCH   8   9
ENDBRANCH   7   8
ENDBRANCH   1   7
TORSDOF 5
REMARK  Name = ../refined-set-2016/1ucn/1ucn_pocket.pdb
REMARK  150 active torsions:
REMARK  status: ('A' for Active; 'I' for Inactive)
REMARK    1  A    between atoms: _1  and  _3
REMARK    2  A    between atoms: _3  and  _4
REMARK    3  A    between atoms: _3  and  _6
REMARK    4  A    between atoms: _6  and  _7
REMARK    5  A    between atoms: _7  and  _8
REMARK    6  A    between atoms: _8  and  _9
REMARK    7  A    between atoms: _9  and  _10
REMARK    8  A    between atoms: _14  and  _16
REMARK    9  A    between atoms: _16  and  _17
REMARK   10  A    between atoms: _16  and  _19
REMARK   11  A    between atoms: _19  and  _20
REMARK   12  A    between atoms: _23  and  _25
REMARK   13  A    between atoms: _25  and  _26
REMARK   14  A    between atoms: _25  and  _28
REMARK   15  A    between atoms: _28  and  _29
REMARK   16  A    between atoms: _34  and  _36
REMARK   17  A    between atoms: _36  and  _37
REMARK   18  A    between atoms: _36  and  _39
REMARK   19  A    between atoms: _39  and  _40
REMARK   20  A    between atoms: _45  and  _46
REMARK   21  A    between atoms: _48  and  _50
REMARK   22  A    between atoms: _50  and  _51
REMARK   23  A    between atoms: _50  and  _53
REMARK   24  A    between atoms: _53  and  _54
REMARK   25  A    between atoms: _57  and  _59
REMARK   26  A    between atoms: _59  and  _60
REMARK   27  A    between atoms: _59  and  _62
REMARK   28  A    between atoms: _62  and  _63
REMARK   29  A    between atoms: _66  and  _68
REMARK   30  A    between atoms: _68  and  _69
REMARK   31  A    between atoms: _68  and  _71
REMARK   32  A    between atoms: _71  and  _72
REMARK   33  A    between atoms: _72  and  _73
REMARK   34  A    between atoms: _73  and  _74
REMARK   35  A    between atoms: _84  and  _85
REMARK   36  A    between atoms: _90  and  _92
REMARK   37  A    between atoms: _92  and  _93
REMARK   38  A    between atoms: _92  and  _95
REMARK   39  A    between atoms: _95  and  _96
REMARK   40  A    between atoms: _106  and  _108
REMARK   41  A    between atoms: _108  and  _109
REMARK   42  A    between atoms: _108  and  _111
REMARK   43  A    between atoms: _111  and  _112
REMARK   44  A    between atoms: _118  and  _120
REMARK   45  A    between atoms: _120  and  _121
REMARK   46  A    between atoms: _123  and  _125
REMARK   47  A    between atoms: _125  and  _126
REMARK   48  A    between atoms: _125  and  _128
REMARK   49  A    between atoms: _128  and  _129
REMARK   50  A    between atoms: _132  and  _134
REMARK   51  A    between atoms: _134  and  _135
REMARK   52  A    between atoms: _134  and  _137
REMARK   53  A    between atoms: _140  and  _142
REMARK   54  A    between atoms: _142  and  _143
REMARK   55  A    between atoms: _142  and  _145
REMARK   56  A    between atoms: _145  and  _146
REMARK   57  A    between atoms: _151  and  _152
REMARK   58  A    between atoms: _154  and  _156
REMARK   59  A    between atoms: _156  and  _157
REMARK   60  A    between atoms: _156  and  _159
REMARK   61  A    between atoms: _159  and  _160
REMARK   62  A    between atoms: _160  and  _161
REMARK   63  A    between atoms: _163  and  _165
REMARK   64  A    between atoms: _165  and  _166
REMARK   65  A    between atoms: _165  and  _168
REMARK   66  A    between atoms: _168  and  _169
REMARK   67  A    between atoms: _169  and  _170
REMARK   68  A    between atoms: _170  and  _171
REMARK   69  A    between atoms: _180  and  _182
REMARK   70  A    between atoms: _182  and  _183
REMARK   71  A    between atoms: _182  and  _185
REMARK   72  A    between atoms: _185  and  _186
REMARK   73  A    between atoms: _189  and  _191
REMARK   74  A    between atoms: _191  and  _192
REMARK   75  A    between atoms: _194  and  _196
REMARK   76  A    between atoms: _196  and  _197
REMARK   77  A    between atoms: _196  and  _199
REMARK   78  A    between atoms: _199  and  _200
REMARK   79  A    between atoms: _200  and  _201
REMARK   80  A    between atoms: _204  and  _206
REMARK   81  A    between atoms: _206  and  _207
REMARK   82  A    between atoms: _206  and  _209
REMARK   83  A    between atoms: _209  and  _210
REMARK   84  A    between atoms: _213  and  _215
REMARK   85  A    between atoms: _215  and  _216
REMARK   86  A    between atoms: _215  and  _218
REMARK   87  A    between atoms: _218  and  _219
REMARK   88  A    between atoms: _225  and  _226
REMARK   89  A    between atoms: _231  and  _233
REMARK   90  A    between atoms: _233  and  _234
REMARK   91  A    between atoms: _233  and  _236
REMARK   92  A    between atoms: _236  and  _237
REMARK   93  A    between atoms: _239  and  _241
REMARK   94  A    between atoms: _241  and  _242
REMARK   95  A    between atoms: _241  and  _244
REMARK   96  A    between atoms: _244  and  _245
REMARK   97  A    between atoms: _245  and  _246
REMARK   98  A    between atoms: _246  and  _247
REMARK   99  A    between atoms: _256  and  _258
REMARK  100  A    between atoms: _258  and  _259
REMARK  101  A    between atoms: _258  and  _261
REMARK  102  A    between atoms: _261  and  _262
REMARK  103  A    between atoms: _262  and  _263
REMARK  104  A    between atoms: _268  and  _270
REMARK  105  A    between atoms: _270  and  _271
REMARK  106  A    between atoms: _270  and  _273
REMARK  107  A    between atoms: _276  and  _278
REMARK  108  A    between atoms: _278  and  _279
REMARK  109  A    between atoms: _281  and  _283
REMARK  110  A    between atoms: _283  and  _284
REMARK  111  A    between atoms: _283  and  _286
REMARK  112  A    between atoms: _286  and  _287
REMARK  113  A    between atoms: _287  and  _288
REMARK  114  A    between atoms: _288  and  _289
REMARK  115  A    between atoms: _298  and  _300
REMARK  116  A    between atoms: _300  and  _301
REMARK  117  A    between atoms: _300  and  _303
REMARK  118  A    between atoms: _303  and  _304
REMARK  119  A    between atoms: _309  and  _311
REMARK  120  A    between atoms: _311  and  _312
REMARK  121  A    between atoms: _311  and  _314
REMARK  122  A    between atoms: _314  and  _315
REMARK  123  A    between atoms: _318  and  _320
REMARK  124  A    between atoms: _320  and  _321
REMARK  125  A    between atoms: _320  and  _323
REMARK  126  A    between atoms: _323  and  _324
REMARK  127  A    between atoms: _327  and  _329
REMARK  128  A    between atoms: _329  and  _330
REMARK  129  A    between atoms: _332  and  _334
REMARK  130  A    between atoms: _334  and  _335
REMARK  131  A    between atoms: _337  and  _339
REMARK  132  A    between atoms: _339  and  _340
REMARK  133  A    between atoms: _339  and  _342
REMARK  134  A    between atoms: _342  and  _343
REMARK  135  A    between atoms: _345  and  _347
REMARK  136  A    between atoms: _347  and  _348
REMARK  137  A    between atoms: _347  and  _350
REMARK  138  A    between atoms: _350  and  _351
REMARK  139  A    between atoms: _351  and  _353
REMARK  140  A    between atoms: _353  and  CA_375
REMARK  141  A    between atoms: _354  and  _356
REMARK  142  A    between atoms: _356  and  _357
REMARK  143  A    between atoms: _356  and  _359
REMARK  144  A    between atoms: _359  and  _360
REMARK  145  A    between atoms: _360  and  _361
REMARK  146  A    between atoms: _364  and  _366
REMARK  147  A    between atoms: _366  and  _367
REMARK  148  A    between atoms: _366  and  _369
REMARK  149  A    between atoms: _369  and  _370
REMARK  150  A    between atoms: _370  and  _371
REMARK                            x       y       z     vdW  Elec       q    Type
REMARK                         _______ _______ _______ _____ _____    ______ ____
ROOT
ATOM      1  O   HOH     1      -8.015  96.628  10.653  0.00  0.00    +0.000 OA
ENDROOT
TORSDOF 0
REMARK  Name = ../refined-set-2016/1ucn/1ucn_pocket.pdb
REMARK  150 active torsions:
REMARK  status: ('A' for Active; 'I' for Inactive)
REMARK    1  A    between atoms: _1  and  _3
REMARK    2  A    between atoms: _3  and  _4
REMARK    3  A    between atoms: _3  and  _6
REMARK    4  A    between atoms: _6  and  _7
REMARK    5  A    between atoms: _7  and  _8
REMARK    6  A    between atoms: _8  and  _9
REMARK    7  A    between atoms: _9  and  _10
REMARK    8  A    between atoms: _14  and  _16
REMARK    9  A    between atoms: _16  and  _17
REMARK   10  A    between atoms: _16  and  _19
REMARK   11  A    between atoms: _19  and  _20
REMARK   12  A    between atoms: _23  and  _25
REMARK   13  A    between atoms: _25  and  _26
REMARK   14  A    between atoms: _25  and  _28
REMARK   15  A    between atoms: _28  and  _29
REMARK   16  A    between atoms: _34  and  _36
REMARK   17  A    between atoms: _36  and  _37
REMARK   18  A    between atoms: _36  and  _39
REMARK   19  A    between atoms: _39  and  _40
REMARK   20  A    between atoms: _45  and  _46
REMARK   21  A    between atoms: _48  and  _50
REMARK   22  A    between atoms: _50  and  _51
REMARK   23  A    between atoms: _50  and  _53
REMARK   24  A    between atoms: _53  and  _54
REMARK   25  A    between atoms: _57  and  _59
REMARK   26  A    between atoms: _59  and  _60
REMARK   27  A    between atoms: _59  and  _62
REMARK   28  A    between atoms: _62  and  _63
REMARK   29  A    between atoms: _66  and  _68
REMARK   30  A    between atoms: _68  and  _69
REMARK   31  A    between atoms: _68  and  _71
REMARK   32  A    between atoms: _71  and  _72
REMARK   33  A    between atoms: _72  and  _73
REMARK   34  A    between atoms: _73  and  _74
REMARK   35  A    between atoms: _84  and  _85
REMARK   36  A    between atoms: _90  and  _92
REMARK   37  A    between atoms: _92  and  _93
REMARK   38  A    between atoms: _92  and  _95
REMARK   39  A    between atoms: _95  and  _96
REMARK   40  A    between atoms: _106  and  _108
REMARK   41  A    between atoms: _108  and  _109
REMARK   42  A    between atoms: _108  and  _111
REMARK   43  A    between atoms: _111  and  _112
REMARK   44  A    between atoms: _118  and  _120
REMARK   45  A    between atoms: _120  and  _121
REMARK   46  A    between atoms: _123  and  _125
REMARK   47  A    between atoms: _125  and  _126
REMARK   48  A    between atoms: _125  and  _128
REMARK   49  A    between atoms: _128  and  _129
REMARK   50  A    between atoms: _132  and  _134
REMARK   51  A    between atoms: _134  and  _135
REMARK   52  A    between atoms: _134  and  _137
REMARK   53  A    between atoms: _140  and  _142
REMARK   54  A    between atoms: _142  and  _143
REMARK   55  A    between atoms: _142  and  _145
REMARK   56  A    between atoms: _145  and  _146
REMARK   57  A    between atoms: _151  and  _152
REMARK   58  A    between atoms: _154  and  _156
REMARK   59  A    between atoms: _156  and  _157
REMARK   60  A    between atoms: _156  and  _159
REMARK   61  A    between atoms: _159  and  _160
REMARK   62  A    between atoms: _160  and  _161
REMARK   63  A    between atoms: _163  and  _165
REMARK   64  A    between atoms: _165  and  _166
REMARK   65  A    between atoms: _165  and  _168
REMARK   66  A    between atoms: _168  and  _169
REMARK   67  A    between atoms: _169  and  _170
REMARK   68  A    between atoms: _170  and  _171
REMARK   69  A    between atoms: _180  and  _182
REMARK   70  A    between atoms: _182  and  _183
REMARK   71  A    between atoms: _182  and  _185
REMARK   72  A    between atoms: _185  and  _186
REMARK   73  A    between atoms: _189  and  _191
REMARK   74  A    between atoms: _191  and  _192
REMARK   75  A    between atoms: _194  and  _196
REMARK   76  A    between atoms: _196  and  _197
REMARK   77  A    between atoms: _196  and  _199
REMARK   78  A    between atoms: _199  and  _200
REMARK   79  A    between atoms: _200  and  _201
REMARK   80  A    between atoms: _204  and  _206
REMARK   81  A    between atoms: _206  and  _207
REMARK   82  A    between atoms: _206  and  _209
REMARK   83  A    between atoms: _209  and  _210
REMARK   84  A    between atoms: _213  and  _215
REMARK   85  A    between atoms: _215  and  _216
REMARK   86  A    between atoms: _215  and  _218
REMARK   87  A    between atoms: _218  and  _219
REMARK   88  A    between atoms: _225  and  _226
REMARK   89  A    between atoms: _231  and  _233
REMARK   90  A    between atoms: _233  and  _234
REMARK   91  A    between atoms: _233  and  _236
REMARK   92  A    between atoms: _236  and  _237
REMARK   93  A    between atoms: _239  and  _241
REMARK   94  A    between atoms: _241  and  _242
REMARK   95  A    between atoms: _241  and  _244
REMARK   96  A    between atoms: _244  and  _245
REMARK   97  A    between atoms: _245  and  _246
REMARK   98  A    between atoms: _246  and  _247
REMARK   99  A    between atoms: _256  and  _258
REMARK  100  A    between atoms: _258  and  _259
REMARK  101  A    between atoms: _258  and  _261
REMARK  102  A    between atoms: _261  and  _262
REMARK  103  A    between atoms: _262  and  _263
REMARK  104  A    between atoms: _268  and  _270
REMARK  105  A    between atoms: _270  and  _271
REMARK  106  A    between atoms: _270  and  _273
REMARK  107  A    between atoms: _276  and  _278
REMARK  108  A    between atoms: _278  and  _279
REMARK  109  A    between atoms: _281  and  _283
REMARK  110  A    between atoms: _283  and  _284
REMARK  111  A    between atoms: _283  and  _286
REMARK  112  A    between atoms: _286  and  _287
REMARK  113  A    between atoms: _287  and  _288
REMARK  114  A    between atoms: _288  and  _289
REMARK  115  A    between atoms: _298  and  _300
REMARK  116  A    between atoms: _300  and  _301
REMARK  117  A    between atoms: _300  and  _303
REMARK  118  A    between atoms: _303  and  _304
REMARK  119  A    between atoms: _309  and  _311
REMARK  120  A    between atoms: _311  and  _312
REMARK  121  A    between atoms: _311  and  _314
REMARK  122  A    between atoms: _314  and  _315
REMARK  123  A    between atoms: _318  and  _320
REMARK  124  A    between atoms: _320  and  _321
REMARK  125  A    between atoms: _320  and  _323
REMARK  126  A    between atoms: _323  and  _324
REMARK  127  A    between atoms: _327  and  _329
REMARK  128  A    between atoms: _329  and  _330
REMARK  129  A    between atoms: _332  and  _334
REMARK  130  A    between atoms: _334  and  _335
REMARK  131  A    between atoms: _337  and  _339
REMARK  132  A    between atoms: _339  and  _340
REMARK  133  A    between atoms: _339  and  _342
REMARK  134  A    between atoms: _342  and  _343
REMARK  135  A    between atoms: _345  and  _347
REMARK  136  A    between atoms: _347  and  _348
REMARK  137  A    between atoms: _347  and  _350
REMARK  138  A    between atoms: _350  and  _351
REMARK  139  A    between atoms: _351  and  _353
REMARK  140  A    between atoms: _353  and  CA_375
REMARK  141  A    between atoms: _354  and  _356
REMARK  142  A    between atoms: _356  and  _357
REMARK  143  A    between atoms: _356  and  _359
REMARK  144  A    between atoms: _359  and  _360
REMARK  145  A    between atoms: _360  and  _361
REMARK  146  A    between atoms: _364  and  _366
REMARK  147  A    between atoms: _366  and  _367
REMARK  148  A    between atoms: _366  and  _369
REMARK  149  A    between atoms: _369  and  _370
REMARK  150  A    between atoms: _370  and  _371
REMARK                            x       y       z     vdW  Elec       q    Type
REMARK                         _______ _______ _______ _____ _____    ______ ____
ROOT
ATOM      1  O   HOH     1     -14.272 104.573  12.630  0.00  0.00    +0.000 OA
ENDROOT
TORSDOF 0
REMARK  Name = ../refined-set-2016/1ucn/1ucn_pocket.pdb
REMARK  150 active torsions:
REMARK  status: ('A' for Active; 'I' for Inactive)
REMARK    1  A    between atoms: _1  and  _3
REMARK    2  A    between atoms: _3  and  _4
REMARK    3  A    between atoms: _3  and  _6
REMARK    4  A    between atoms: _6  and  _7
REMARK    5  A    between atoms: _7  and  _8
REMARK    6  A    between atoms: _8  and  _9
REMARK    7  A    between atoms: _9  and  _10
REMARK    8  A    between atoms: _14  and  _16
REMARK    9  A    between atoms: _16  and  _17
REMARK   10  A    between atoms: _16  and  _19
REMARK   11  A    between atoms: _19  and  _20
REMARK   12  A    between atoms: _23  and  _25
REMARK   13  A    between atoms: _25  and  _26
REMARK   14  A    between atoms: _25  and  _28
REMARK   15  A    between atoms: _28  and  _29
REMARK   16  A    between atoms: _34  and  _36
REMARK   17  A    between atoms: _36  and  _37
REMARK   18  A    between atoms: _36  and  _39
REMARK   19  A    between atoms: _39  and  _40
REMARK   20  A    between atoms: _45  and  _46
REMARK   21  A    between atoms: _48  and  _50
REMARK   22  A    between atoms: _50  and  _51
REMARK   23  A    between atoms: _50  and  _53
REMARK   24  A    between atoms: _53  and  _54
REMARK   25  A    between atoms: _57  and  _59
REMARK   26  A    between atoms: _59  and  _60
REMARK   27  A    between atoms: _59  and  _62
REMARK   28  A    between atoms: _62  and  _63
REMARK   29  A    between atoms: _66  and  _68
REMARK   30  A    between atoms: _68  and  _69
REMARK   31  A    between atoms: _68  and  _71
REMARK   32  A    between atoms: _71  and  _72
REMARK   33  A    between atoms: _72  and  _73
REMARK   34  A    between atoms: _73  and  _74
REMARK   35  A    between atoms: _84  and  _85
REMARK   36  A    between atoms: _90  and  _92
REMARK   37  A    between atoms: _92  and  _93
REMARK   38  A    between atoms: _92  and  _95
REMARK   39  A    between atoms: _95  and  _96
REMARK   40  A    between atoms: _106  and  _108
REMARK   41  A    between atoms: _108  and  _109
REMARK   42  A    between atoms: _108  and  _111
REMARK   43  A    between atoms: _111  and  _112
REMARK   44  A    between atoms: _118  and  _120
REMARK   45  A    between atoms: _120  and  _121
REMARK   46  A    between atoms: _123  and  _125
REMARK   47  A    between atoms: _125  and  _126
REMARK   48  A    between atoms: _125  and  _128
REMARK   49  A    between atoms: _128  and  _129
REMARK   50  A    between atoms: _132  and  _134
REMARK   51  A    between atoms: _134  and  _135
REMARK   52  A    between atoms: _134  and  _137
REMARK   53  A    between atoms: _140  and  _142
REMARK   54  A    between atoms: _142  and  _143
REMARK   55  A    between atoms: _142  and  _145
REMARK   56  A    between atoms: _145  and  _146
REMARK   57  A    between atoms: _151  and  _152
REMARK   58  A    between atoms: _154  and  _156
REMARK   59  A    between atoms: _156  and  _157
REMARK   60  A    between atoms: _156  and  _159
REMARK   61  A    between atoms: _159  and  _160
REMARK   62  A    between atoms: _160  and  _161
REMARK   63  A    between atoms: _163  and  _165
REMARK   64  A    between atoms: _165  and  _166
REMARK   65  A    between atoms: _165  and  _168
REMARK   66  A    between atoms: _168  and  _169
REMARK   67  A    between atoms: _169  and  _170
REMARK   68  A    between atoms: _170  and  _171
REMARK   69  A    between atoms: _180  and  _182
REMARK   70  A    between atoms: _182  and  _183
REMARK   71  A    between atoms: _182  and  _185
REMARK   72  A    between atoms: _185  and  _186
REMARK   73  A    between atoms: _189  and  _191
REMARK   74  A    between atoms: _191  and  _192
REMARK   75  A    between atoms: _194  and  _196
REMARK   76  A    between atoms: _196  and  _197
REMARK   77  A    between atoms: _196  and  _199
REMARK   78  A    between atoms: _199  and  _200
REMARK   79  A    between atoms: _200  and  _201
REMARK   80  A    between atoms: _204  and  _206
REMARK   81  A    between atoms: _206  and  _207
REMARK   82  A    between atoms: _206  and  _209
REMARK   83  A    between atoms: _209  and  _210
REMARK   84  A    between atoms: _213  and  _215
REMARK   85  A    between atoms: _215  and  _216
REMARK   86  A    between atoms: _215  and  _218
REMARK   87  A    between atoms: _218  and  _219
REMARK   88  A    between atoms: _225  and  _226
REMARK   89  A    between atoms: _231  and  _233
REMARK   90  A    between atoms: _233  and  _234
REMARK   91  A    between atoms: _233  and  _236
REMARK   92  A    between atoms: _236  and  _237
REMARK   93  A    between atoms: _239  and  _241
REMARK   94  A    between atoms: _241  and  _242
REMARK   95  A    between atoms: _241  and  _244
REMARK   96  A    between atoms: _244  and  _245
REMARK   97  A    between atoms: _245  and  _246
REMARK   98  A    between atoms: _246  and  _247
REMARK   99  A    between atoms: _256  and  _258
REMARK  100  A    between atoms: _258  and  _259
REMARK  101  A    between atoms: _258  and  _261
REMARK  102  A    between atoms: _261  and  _262
REMARK  103  A    between atoms: _262  and  _263
REMARK  104  A    between atoms: _268  and  _270
REMARK  105  A    between atoms: _270  and  _271
REMARK  106  A    between atoms: _270  and  _273
REMARK  107  A    between atoms: _276  and  _278
REMARK  108  A    between atoms: _278  and  _279
REMARK  109  A    between atoms: _281  and  _283
REMARK  110  A    between atoms: _283  and  _284
REMARK  111  A    between atoms: _283  and  _286
REMARK  112  A    between atoms: _286  and  _287
REMARK  113  A    between atoms: _287  and  _288
REMARK  114  A    between atoms: _288  and  _289
REMARK  115  A    between atoms: _298  and  _300
REMARK  116  A    between atoms: _300  and  _301
REMARK  117  A    between atoms: _300  and  _303
REMARK  118  A    between atoms: _303  and  _304
REMARK  119  A    between atoms: _309  and  _311
REMARK  120  A    between atoms: _311  and  _312
REMARK  121  A    between atoms: _311  and  _314
REMARK  122  A    between atoms: _314  and  _315
REMARK  123  A    between atoms: _318  and  _320
REMARK  124  A    between atoms: _320  and  _321
REMARK  125  A    between atoms: _320  and  _323
REMARK  126  A    between atoms: _323  and  _324
REMARK  127  A    between atoms: _327  and  _329
REMARK  128  A    between atoms: _329  and  _330
REMARK  129  A    between atoms: _332  and  _334
REMARK  130  A    between atoms: _334  and  _335
REMARK  131  A    between atoms: _337  and  _339
REMARK  132  A    between atoms: _339  and  _340
REMARK  133  A    between atoms: _339  and  _342
REMARK  134  A    between atoms: _342  and  _343
REMARK  135  A    between atoms: _345  and  _347
REMARK  136  A    between atoms: _347  and  _348
REMARK  137  A    between atoms: _347  and  _350
REMARK  138  A    between atoms: _350  and  _351
REMARK  139  A    between atoms: _351  and  _353
REMARK  140  A    between atoms: _353  and  CA_375
REMARK  141  A    between atoms: _354  and  _356
REMARK  142  A    between atoms: _356  and  _357
REMARK  143  A    between atoms: _356  and  _359
REMARK  144  A    between atoms: _359  and  _360
REMARK  145  A    between atoms: _360  and  _361
REMARK  146  A    between atoms: _364  and  _366
REMARK  147  A    between atoms: _366  and  _367
REMARK  148  A    between atoms: _366  and  _369
REMARK  149  A    between atoms: _369  and  _370
REMARK  150  A    between atoms: _370  and  _371
REMARK                            x       y       z     vdW  Elec       q    Type
REMARK                         _______ _______ _______ _____ _____    ______ ____
ROOT
ATOM      1  O   HOH     1     -14.297 100.908  15.434  0.00  0.00    +0.000 OA
ENDROOT
TORSDOF 0
REMARK  Name = ../refined-set-2016/1ucn/1ucn_pocket.pdb
REMARK  150 active torsions:
REMARK  status: ('A' for Active; 'I' for Inactive)
REMARK    1  A    between atoms: _1  and  _3
REMARK    2  A    between atoms: _3  and  _4
REMARK    3  A    between atoms: _3  and  _6
REMARK    4  A    between atoms: _6  and  _7
REMARK    5  A    between atoms: _7  and  _8
REMARK    6  A    between atoms: _8  and  _9
REMARK    7  A    between atoms: _9  and  _10
REMARK    8  A    between atoms: _14  and  _16
REMARK    9  A    between atoms: _16  and  _17
REMARK   10  A    between atoms: _16  and  _19
REMARK   11  A    between atoms: _19  and  _20
REMARK   12  A    between atoms: _23  and  _25
REMARK   13  A    between atoms: _25  and  _26
REMARK   14  A    between atoms: _25  and  _28
REMARK   15  A    between atoms: _28  and  _29
REMARK   16  A    between atoms: _34  and  _36
REMARK   17  A    between atoms: _36  and  _37
REMARK   18  A    between atoms: _36  and  _39
REMARK   19  A    between atoms: _39  and  _40
REMARK   20  A    between atoms: _45  and  _46
REMARK   21  A    between atoms: _48  and  _50
REMARK   22  A    between atoms: _50  and  _51
REMARK   23  A    between atoms: _50  and  _53
REMARK   24  A    between atoms: _53  and  _54
REMARK   25  A    between atoms: _57  and  _59
REMARK   26  A    between atoms: _59  and  _60
REMARK   27  A    between atoms: _59  and  _62
REMARK   28  A    between atoms: _62  and  _63
REMARK   29  A    between atoms: _66  and  _68
REMARK   30  A    between atoms: _68  and  _69
REMARK   31  A    between atoms: _68  and  _71
REMARK   32  A    between atoms: _71  and  _72
REMARK   33  A    between atoms: _72  and  _73
REMARK   34  A    between atoms: _73  and  _74
REMARK   35  A    between atoms: _84  and  _85
REMARK   36  A    between atoms: _90  and  _92
REMARK   37  A    between atoms: _92  and  _93
REMARK   38  A    between atoms: _92  and  _95
REMARK   39  A    between atoms: _95  and  _96
REMARK   40  A    between atoms: _106  and  _108
REMARK   41  A    between atoms: _108  and  _109
REMARK   42  A    between atoms: _108  and  _111
REMARK   43  A    between atoms: _111  and  _112
REMARK   44  A    between atoms: _118  and  _120
REMARK   45  A    between atoms: _120  and  _121
REMARK   46  A    between atoms: _123  and  _125
REMARK   47  A    between atoms: _125  and  _126
REMARK   48  A    between atoms: _125  and  _128
REMARK   49  A    between atoms: _128  and  _129
REMARK   50  A    between atoms: _132  and  _134
REMARK   51  A    between atoms: _134  and  _135
REMARK   52  A    between atoms: _134  and  _137
REMARK   53  A    between atoms: _140  and  _142
REMARK   54  A    between atoms: _142  and  _143
REMARK   55  A    between atoms: _142  and  _145
REMARK   56  A    between atoms: _145  and  _146
REMARK   57  A    between atoms: _151  and  _152
REMARK   58  A    between atoms: _154  and  _156
REMARK   59  A    between atoms: _156  and  _157
REMARK   60  A    between atoms: _156  and  _159
REMARK   61  A    between atoms: _159  and  _160
REMARK   62  A    between atoms: _160  and  _161
REMARK   63  A    between atoms: _163  and  _165
REMARK   64  A    between atoms: _165  and  _166
REMARK   65  A    between atoms: _165  and  _168
REMARK   66  A    between atoms: _168  and  _169
REMARK   67  A    between atoms: _169  and  _170
REMARK   68  A    between atoms: _170  and  _171
REMARK   69  A    between atoms: _180  and  _182
REMARK   70  A    between atoms: _182  and  _183
REMARK   71  A    between atoms: _182  and  _185
REMARK   72  A    between atoms: _185  and  _186
REMARK   73  A    between atoms: _189  and  _191
REMARK   74  A    between atoms: _191  and  _192
REMARK   75  A    between atoms: _194  and  _196
REMARK   76  A    between atoms: _196  and  _197
REMARK   77  A    between atoms: _196  and  _199
REMARK   78  A    between atoms: _199  and  _200
REMARK   79  A    between atoms: _200  and  _201
REMARK   80  A    between atoms: _204  and  _206
REMARK   81  A    between atoms: _206  and  _207
REMARK   82  A    between atoms: _206  and  _209
REMARK   83  A    between atoms: _209  and  _210
REMARK   84  A    between atoms: _213  and  _215
REMARK   85  A    between atoms: _215  and  _216
REMARK   86  A    between atoms: _215  and  _218
REMARK   87  A    between atoms: _218  and  _219
REMARK   88  A    between atoms: _225  and  _226
REMARK   89  A    between atoms: _231  and  _233
REMARK   90  A    between atoms: _233  and  _234
REMARK   91  A    between atoms: _233  and  _236
REMARK   92  A    between atoms: _236  and  _237
REMARK   93  A    between atoms: _239  and  _241
REMARK   94  A    between atoms: _241  and  _242
REMARK   95  A    between atoms: _241  and  _244
REMARK   96  A    between atoms: _244  and  _245
REMARK   97  A    between atoms: _245  and  _246
REMARK   98  A    between atoms: _246  and  _247
REMARK   99  A    between atoms: _256  and  _258
REMARK  100  A    between atoms: _258  and  _259
REMARK  101  A    between atoms: _258  and  _261
REMARK  102  A    between atoms: _261  and  _262
REMARK  103  A    between atoms: _262  and  _263
REMARK  104  A    between atoms: _268  and  _270
REMARK  105  A    between atoms: _270  and  _271
REMARK  106  A    between atoms: _270  and  _273
REMARK  107  A    between atoms: _276  and  _278
REMARK  108  A    between atoms: _278  and  _279
REMARK  109  A    between atoms: _281  and  _283
REMARK  110  A    between atoms: _283  and  _284
REMARK  111  A    between atoms: _283  and  _286
REMARK  112  A    between atoms: _286  and  _287
REMARK  113  A    between atoms: _287  and  _288
REMARK  114  A    between atoms: _288  and  _289
REMARK  115  A    between atoms: _298  and  _300
REMARK  116  A    between atoms: _300  and  _301
REMARK  117  A    between atoms: _300  and  _303
REMARK  118  A    between atoms: _303  and  _304
REMARK  119  A    between atoms: _309  and  _311
REMARK  120  A    between atoms: _311  and  _312
REMARK  121  A    between atoms: _311  and  _314
REMARK  122  A    between atoms: _314  and  _315
REMARK  123  A    between atoms: _318  and  _320
REMARK  124  A    between atoms: _320  and  _321
REMARK  125  A    between atoms: _320  and  _323
REMARK  126  A    between atoms: _323  and  _324
REMARK  127  A    between atoms: _327  and  _329
REMARK  128  A    between atoms: _329  and  _330
REMARK  129  A    between atoms: _332  and  _334
REMARK  130  A    between atoms: _334  and  _335
REMARK  131  A    between atoms: _337  and  _339
REMARK  132  A    between atoms: _339  and  _340
REMARK  133  A    between atoms: _339  and  _342
REMARK  134  A    between atoms: _342  and  _343
REMARK  135  A    between atoms: _345  and  _347
REMARK  136  A    between atoms: _347  and  _348
REMARK  137  A    between atoms: _347  and  _350
REMARK  138  A    between atoms: _350  and  _351
REMARK  139  A    between atoms: _351  and  _353
REMARK  140  A    between atoms: _353  and  CA_375
REMARK  141  A    between atoms: _354  and  _356
REMARK  142  A    between atoms: _356  and  _357
REMARK  143  A    between atoms: _356  and  _359
REMARK  144  A    between atoms: _359  and  _360
REMARK  145  A    between atoms: _360  and  _361
REMARK  146  A    between atoms: _364  and  _366
REMARK  147  A    between atoms: _366  and  _367
REMARK  148  A    between atoms: _366  and  _369
REMARK  149  A    between atoms: _369  and  _370
REMARK  150  A    between atoms: _370  and  _371
REMARK                            x       y       z     vdW  Elec       q    Type
REMARK                         _______ _______ _______ _____ _____    ______ ____
ROOT
ATOM      1  O   HOH     1     -12.828  95.037  25.058  0.00  0.00    +0.000 OA
ENDROOT
TORSDOF 0
REMARK  Name = ../refined-set-2016/1ucn/1ucn_pocket.pdb
REMARK  150 active torsions:
REMARK  status: ('A' for Active; 'I' for Inactive)
REMARK    1  A    between atoms: _1  and  _3
REMARK    2  A    between atoms: _3  and  _4
REMARK    3  A    between atoms: _3  and  _6
REMARK    4  A    between atoms: _6  and  _7
REMARK    5  A    between atoms: _7  and  _8
REMARK    6  A    between atoms: _8  and  _9
REMARK    7  A    between atoms: _9  and  _10
REMARK    8  A    between atoms: _14  and  _16
REMARK    9  A    between atoms: _16  and  _17
REMARK   10  A    between atoms: _16  and  _19
REMARK   11  A    between atoms: _19  and  _20
REMARK   12  A    between atoms: _23  and  _25
REMARK   13  A    between atoms: _25  and  _26
REMARK   14  A    between atoms: _25  and  _28
REMARK   15  A    between atoms: _28  and  _29
REMARK   16  A    between atoms: _34  and  _36
REMARK   17  A    between atoms: _36  and  _37
REMARK   18  A    between atoms: _36  and  _39
REMARK   19  A    between atoms: _39  and  _40
REMARK   20  A    between atoms: _45  and  _46
REMARK   21  A    between atoms: _48  and  _50
REMARK   22  A    between atoms: _50  and  _51
REMARK   23  A    between atoms: _50  and  _53
REMARK   24  A    between atoms: _53  and  _54
REMARK   25  A    between atoms: _57  and  _59
REMARK   26  A    between atoms: _59  and  _60
REMARK   27  A    between atoms: _59  and  _62
REMARK   28  A    between atoms: _62  and  _63
REMARK   29  A    between atoms: _66  and  _68
REMARK   30  A    between atoms: _68  and  _69
REMARK   31  A    between atoms: _68  and  _71
REMARK   32  A    between atoms: _71  and  _72
REMARK   33  A    between atoms: _72  and  _73
REMARK   34  A    between atoms: _73  and  _74
REMARK   35  A    between atoms: _84  and  _85
REMARK   36  A    between atoms: _90  and  _92
REMARK   37  A    between atoms: _92  and  _93
REMARK   38  A    between atoms: _92  and  _95
REMARK   39  A    between atoms: _95  and  _96
REMARK   40  A    between atoms: _106  and  _108
REMARK   41  A    between atoms: _108  and  _109
REMARK   42  A    between atoms: _108  and  _111
REMARK   43  A    between atoms: _111  and  _112
REMARK   44  A    between atoms: _118  and  _120
REMARK   45  A    between atoms: _120  and  _121
REMARK   46  A    between atoms: _123  and  _125
REMARK   47  A    between atoms: _125  and  _126
REMARK   48  A    between atoms: _125  and  _128
REMARK   49  A    between atoms: _128  and  _129
REMARK   50  A    between atoms: _132  and  _134
REMARK   51  A    between atoms: _134  and  _135
REMARK   52  A    between atoms: _134  and  _137
REMARK   53  A    between atoms: _140  and  _142
REMARK   54  A    between atoms: _142  and  _143
REMARK   55  A    between atoms: _142  and  _145
REMARK   56  A    between atoms: _145  and  _146
REMARK   57  A    between atoms: _151  and  _152
REMARK   58  A    between atoms: _154  and  _156
REMARK   59  A    between atoms: _156  and  _157
REMARK   60  A    between atoms: _156  and  _159
REMARK   61  A    between atoms: _159  and  _160
REMARK   62  A    between atoms: _160  and  _161
REMARK   63  A    between atoms: _163  and  _165
REMARK   64  A    between atoms: _165  and  _166
REMARK   65  A    between atoms: _165  and  _168
REMARK   66  A    between atoms: _168  and  _169
REMARK   67  A    between atoms: _169  and  _170
REMARK   68  A    between atoms: _170  and  _171
REMARK   69  A    between atoms: _180  and  _182
REMARK   70  A    between atoms: _182  and  _183
REMARK   71  A    between atoms: _182  and  _185
REMARK   72  A    between atoms: _185  and  _186
REMARK   73  A    between atoms: _189  and  _191
REMARK   74  A    between atoms: _191  and  _192
REMARK   75  A    between atoms: _194  and  _196
REMARK   76  A    between atoms: _196  and  _197
REMARK   77  A    between atoms: _196  and  _199
REMARK   78  A    between atoms: _199  and  _200
REMARK   79  A    between atoms: _200  and  _201
REMARK   80  A    between atoms: _204  and  _206
REMARK   81  A    between atoms: _206  and  _207
REMARK   82  A    between atoms: _206  and  _209
REMARK   83  A    between atoms: _209  and  _210
REMARK   84  A    between atoms: _213  and  _215
REMARK   85  A    between atoms: _215  and  _216
REMARK   86  A    between atoms: _215  and  _218
REMARK   87  A    between atoms: _218  and  _219
REMARK   88  A    between atoms: _225  and  _226
REMARK   89  A    between atoms: _231  and  _233
REMARK   90  A    between atoms: _233  and  _234
REMARK   91  A    between atoms: _233  and  _236
REMARK   92  A    between atoms: _236  and  _237
REMARK   93  A    between atoms: _239  and  _241
REMARK   94  A    between atoms: _241  and  _242
REMARK   95  A    between atoms: _241  and  _244
REMARK   96  A    between atoms: _244  and  _245
REMARK   97  A    between atoms: _245  and  _246
REMARK   98  A    between atoms: _246  and  _247
REMARK   99  A    between atoms: _256  and  _258
REMARK  100  A    between atoms: _258  and  _259
REMARK  101  A    between atoms: _258  and  _261
REMARK  102  A    between atoms: _261  and  _262
REMARK  103  A    between atoms: _262  and  _263
REMARK  104  A    between atoms: _268  and  _270
REMARK  105  A    between atoms: _270  and  _271
REMARK  106  A    between atoms: _270  and  _273
REMARK  107  A    between atoms: _276  and  _278
REMARK  108  A    between atoms: _278  and  _279
REMARK  109  A    between atoms: _281  and  _283
REMARK  110  A    between atoms: _283  and  _284
REMARK  111  A    between atoms: _283  and  _286
REMARK  112  A    between atoms: _286  and  _287
REMARK  113  A    between atoms: _287  and  _288
REMARK  114  A    between atoms: _288  and  _289
REMARK  115  A    between atoms: _298  and  _300
REMARK  116  A    between atoms: _300  and  _301
REMARK  117  A    between atoms: _300  and  _303
REMARK  118  A    between atoms: _303  and  _304
REMARK  119  A    between atoms: _309  and  _311
REMARK  120  A    between atoms: _311  and  _312
REMARK  121  A    between atoms: _311  and  _314
REMARK  122  A    between atoms: _314  and  _315
REMARK  123  A    between atoms: _318  and  _320
REMARK  124  A    between atoms: _320  and  _321
REMARK  125  A    between atoms: _320  and  _323
REMARK  126  A    between atoms: _323  and  _324
REMARK  127  A    between atoms: _327  and  _329
REMARK  128  A    between atoms: _329  and  _330
REMARK  129  A    between atoms: _332  and  _334
REMARK  130  A    between atoms: _334  and  _335
REMARK  131  A    between atoms: _337  and  _339
REMARK  132  A    between atoms: _339  and  _340
REMARK  133  A    between atoms: _339  and  _342
REMARK  134  A    between atoms: _342  and  _343
REMARK  135  A    between atoms: _345  and  _347
REMARK  136  A    between atoms: _347  and  _348
REMARK  137  A    between atoms: _347  and  _350
REMARK  138  A    between atoms: _350  and  _351
REMARK  139  A    between atoms: _351  and  _353
REMARK  140  A    between atoms: _353  and  CA_375
REMARK  141  A    between atoms: _354  and  _356
REMARK  142  A    between atoms: _356  and  _357
REMARK  143  A    between atoms: _356  and  _359
REMARK  144  A    between atoms: _359  and  _360
REMARK  145  A    between atoms: _360  and  _361
REMARK  146  A    between atoms: _364  and  _366
REMARK  147  A    between atoms: _366  and  _367
REMARK  148  A    between atoms: _366  and  _369
REMARK  149  A    between atoms: _369  and  _370
REMARK  150  A    between atoms: _370  and  _371
REMARK                            x       y       z     vdW  Elec       q    Type
REMARK                         _______ _______ _______ _____ _____    ______ ____
ROOT
ATOM      1  O   HOH     1     -15.218  92.860  15.201  0.00  0.00    +0.000 OA
ENDROOT
TORSDOF 0
REMARK  Name = ../refined-set-2016/1ucn/1ucn_pocket.pdb
REMARK  150 active torsions:
REMARK  status: ('A' for Active; 'I' for Inactive)
REMARK    1  A    between atoms: _1  and  _3
REMARK    2  A    between atoms: _3  and  _4
REMARK    3  A    between atoms: _3  and  _6
REMARK    4  A    between atoms: _6  and  _7
REMARK    5  A    between atoms: _7  and  _8
REMARK    6  A    between atoms: _8  and  _9
REMARK    7  A    between atoms: _9  and  _10
REMARK    8  A    between atoms: _14  and  _16
REMARK    9  A    between atoms: _16  and  _17
REMARK   10  A    between atoms: _16  and  _19
REMARK   11  A    between atoms: _19  and  _20
REMARK   12  A    between atoms: _23  and  _25
REMARK   13  A    between atoms: _25  and  _26
REMARK   14  A    between atoms: _25  and  _28
REMARK   15  A    between atoms: _28  and  _29
REMARK   16  A    between atoms: _34  and  _36
REMARK   17  A    between atoms: _36  and  _37
REMARK   18  A    between atoms: _36  and  _39
REMARK   19  A    between atoms: _39  and  _40
REMARK   20  A    between atoms: _45  and  _46
REMARK   21  A    between atoms: _48  and  _50
REMARK   22  A    between atoms: _50  and  _51
REMARK   23  A    between atoms: _50  and  _53
REMARK   24  A    between atoms: _53  and  _54
REMARK   25  A    between atoms: _57  and  _59
REMARK   26  A    between atoms: _59  and  _60
REMARK   27  A    between atoms: _59  and  _62
REMARK   28  A    between atoms: _62  and  _63
REMARK   29  A    between atoms: _66  and  _68
REMARK   30  A    between atoms: _68  and  _69
REMARK   31  A    between atoms: _68  and  _71
REMARK   32  A    between atoms: _71  and  _72
REMARK   33  A    between atoms: _72  and  _73
REMARK   34  A    between atoms: _73  and  _74
REMARK   35  A    between atoms: _84  and  _85
REMARK   36  A    between atoms: _90  and  _92
REMARK   37  A    between atoms: _92  and  _93
REMARK   38  A    between atoms: _92  and  _95
REMARK   39  A    between atoms: _95  and  _96
REMARK   40  A    between atoms: _106  and  _108
REMARK   41  A    between atoms: _108  and  _109
REMARK   42  A    between atoms: _108  and  _111
REMARK   43  A    between atoms: _111  and  _112
REMARK   44  A    between atoms: _118  and  _120
REMARK   45  A    between atoms: _120  and  _121
REMARK   46  A    between atoms: _123  and  _125
REMARK   47  A    between atoms: _125  and  _126
REMARK   48  A    between atoms: _125  and  _128
REMARK   49  A    between atoms: _128  and  _129
REMARK   50  A    between atoms: _132  and  _134
REMARK   51  A    between atoms: _134  and  _135
REMARK   52  A    between atoms: _134  and  _137
REMARK   53  A    between atoms: _140  and  _142
REMARK   54  A    between atoms: _142  and  _143
REMARK   55  A    between atoms: _142  and  _145
REMARK   56  A    between atoms: _145  and  _146
REMARK   57  A    between atoms: _151  and  _152
REMARK   58  A    between atoms: _154  and  _156
REMARK   59  A    between atoms: _156  and  _157
REMARK   60  A    between atoms: _156  and  _159
REMARK   61  A    between atoms: _159  and  _160
REMARK   62  A    between atoms: _160  and  _161
REMARK   63  A    between atoms: _163  and  _165
REMARK   64  A    between atoms: _165  and  _166
REMARK   65  A    between atoms: _165  and  _168
REMARK   66  A    between atoms: _168  and  _169
REMARK   67  A    between atoms: _169  and  _170
REMARK   68  A    between atoms: _170  and  _171
REMARK   69  A    between atoms: _180  and  _182
REMARK   70  A    between atoms: _182  and  _183
REMARK   71  A    between atoms: _182  and  _185
REMARK   72  A    between atoms: _185  and  _186
REMARK   73  A    between atoms: _189  and  _191
REMARK   74  A    between atoms: _191  and  _192
REMARK   75  A    between atoms: _194  and  _196
REMARK   76  A    between atoms: _196  and  _197
REMARK   77  A    between atoms: _196  and  _199
REMARK   78  A    between atoms: _199  and  _200
REMARK   79  A    between atoms: _200  and  _201
REMARK   80  A    between atoms: _204  and  _206
REMARK   81  A    between atoms: _206  and  _207
REMARK   82  A    between atoms: _206  and  _209
REMARK   83  A    between atoms: _209  and  _210
REMARK   84  A    between atoms: _213  and  _215
REMARK   85  A    between atoms: _215  and  _216
REMARK   86  A    between atoms: _215  and  _218
REMARK   87  A    between atoms: _218  and  _219
REMARK   88  A    between atoms: _225  and  _226
REMARK   89  A    between atoms: _231  and  _233
REMARK   90  A    between atoms: _233  and  _234
REMARK   91  A    between atoms: _233  and  _236
REMARK   92  A    between atoms: _236  and  _237
REMARK   93  A    between atoms: _239  and  _241
REMARK   94  A    between atoms: _241  and  _242
REMARK   95  A    between atoms: _241  and  _244
REMARK   96  A    between atoms: _244  and  _245
REMARK   97  A    between atoms: _245  and  _246
REMARK   98  A    between atoms: _246  and  _247
REMARK   99  A    between atoms: _256  and  _258
REMARK  100  A    between atoms: _258  and  _259
REMARK  101  A    between atoms: _258  and  _261
REMARK  102  A    between atoms: _261  and  _262
REMARK  103  A    between atoms: _262  and  _263
REMARK  104  A    between atoms: _268  and  _270
REMARK  105  A    between atoms: _270  and  _271
REMARK  106  A    between atoms: _270  and  _273
REMARK  107  A    between atoms: _276  and  _278
REMARK  108  A    between atoms: _278  and  _279
REMARK  109  A    between atoms: _281  and  _283
REMARK  110  A    between atoms: _283  and  _284
REMARK  111  A    between atoms: _283  and  _286
REMARK  112  A    between atoms: _286  and  _287
REMARK  113  A    between atoms: _287  and  _288
REMARK  114  A    between atoms: _288  and  _289
REMARK  115  A    between atoms: _298  and  _300
REMARK  116  A    between atoms: _300  and  _301
REMARK  117  A    between atoms: _300  and  _303
REMARK  118  A    between atoms: _303  and  _304
REMARK  119  A    between atoms: _309  and  _311
REMARK  120  A    between atoms: _311  and  _312
REMARK  121  A    between atoms: _311  and  _314
REMARK  122  A    between atoms: _314  and  _315
REMARK  123  A    between atoms: _318  and  _320
REMARK  124  A    between atoms: _320  and  _321
REMARK  125  A    between atoms: _320  and  _323
REMARK  126  A    between atoms: _323  and  _324
REMARK  127  A    between atoms: _327  and  _329
REMARK  128  A    between atoms: _329  and  _330
REMARK  129  A    between atoms: _332  and  _334
REMARK  130  A    between atoms: _334  and  _335
REMARK  131  A    between atoms: _337  and  _339
REMARK  132  A    between atoms: _339  and  _340
REMARK  133  A    between atoms: _339  and  _342
REMARK  134  A    between atoms: _342  and  _343
REMARK  135  A    between atoms: _345  and  _347
REMARK  136  A    between atoms: _347  and  _348
REMARK  137  A    between atoms: _347  and  _350
REMARK  138  A    between atoms: _350  and  _351
REMARK  139  A    between atoms: _351  and  _353
REMARK  140  A    between atoms: _353  and  CA_375
REMARK  141  A    between atoms: _354  and  _356
REMARK  142  A    between atoms: _356  and  _357
REMARK  143  A    between atoms: _356  and  _359
REMARK  144  A    between atoms: _359  and  _360
REMARK  145  A    between atoms: _360  and  _361
REMARK  146  A    between atoms: _364  and  _366
REMARK  147  A    between atoms: _366  and  _367
REMARK  148  A    between atoms: _366  and  _369
REMARK  149  A    between atoms: _369  and  _370
REMARK  150  A    between atoms: _370  and  _371
REMARK                            x       y       z     vdW  Elec       q    Type
REMARK                         _______ _______ _______ _____ _____    ______ ____
ROOT
ATOM      1  O   HOH     1     -12.495 101.263  13.875  0.00  0.00    +0.000 OA
ENDROOT
TORSDOF 0
REMARK  Name = ../refined-set-2016/1ucn/1ucn_pocket.pdb
REMARK  150 active torsions:
REMARK  status: ('A' for Active; 'I' for Inactive)
REMARK    1  A    between atoms: _1  and  _3
REMARK    2  A    between atoms: _3  and  _4
REMARK    3  A    between atoms: _3  and  _6
REMARK    4  A    between atoms: _6  and  _7
REMARK    5  A    between atoms: _7  and  _8
REMARK    6  A    between atoms: _8  and  _9
REMARK    7  A    between atoms: _9  and  _10
REMARK    8  A    between atoms: _14  and  _16
REMARK    9  A    between atoms: _16  and  _17
REMARK   10  A    between atoms: _16  and  _19
REMARK   11  A    between atoms: _19  and  _20
REMARK   12  A    between atoms: _23  and  _25
REMARK   13  A    between atoms: _25  and  _26
REMARK   14  A    between atoms: _25  and  _28
REMARK   15  A    between atoms: _28  and  _29
REMARK   16  A    between atoms: _34  and  _36
REMARK   17  A    between atoms: _36  and  _37
REMARK   18  A    between atoms: _36  and  _39
REMARK   19  A    between atoms: _39  and  _40
REMARK   20  A    between atoms: _45  and  _46
REMARK   21  A    between atoms: _48  and  _50
REMARK   22  A    between atoms: _50  and  _51
REMARK   23  A    between atoms: _50  and  _53
REMARK   24  A    between atoms: _53  and  _54
REMARK   25  A    between atoms: _57  and  _59
REMARK   26  A    between atoms: _59  and  _60
REMARK   27  A    between atoms: _59  and  _62
REMARK   28  A    between atoms: _62  and  _63
REMARK   29  A    between atoms: _66  and  _68
REMARK   30  A    between atoms: _68  and  _69
REMARK   31  A    between atoms: _68  and  _71
REMARK   32  A    between atoms: _71  and  _72
REMARK   33  A    between atoms: _72  and  _73
REMARK   34  A    between atoms: _73  and  _74
REMARK   35  A    between atoms: _84  and  _85
REMARK   36  A    between atoms: _90  and  _92
REMARK   37  A    between atoms: _92  and  _93
REMARK   38  A    between atoms: _92  and  _95
REMARK   39  A    between atoms: _95  and  _96
REMARK   40  A    between atoms: _106  and  _108
REMARK   41  A    between atoms: _108  and  _109
REMARK   42  A    between atoms: _108  and  _111
REMARK   43  A    between atoms: _111  and  _112
REMARK   44  A    between atoms: _118  and  _120
REMARK   45  A    between atoms: _120  and  _121
REMARK   46  A    between atoms: _123  and  _125
REMARK   47  A    between atoms: _125  and  _126
REMARK   48  A    between atoms: _125  and  _128
REMARK   49  A    between atoms: _128  and  _129
REMARK   50  A    between atoms: _132  and  _134
REMARK   51  A    between atoms: _134  and  _135
REMARK   52  A    between atoms: _134  and  _137
REMARK   53  A    between atoms: _140  and  _142
REMARK   54  A    between atoms: _142  and  _143
REMARK   55  A    between atoms: _142  and  _145
REMARK   56  A    between atoms: _145  and  _146
REMARK   57  A    between atoms: _151  and  _152
REMARK   58  A    between atoms: _154  and  _156
REMARK   59  A    between atoms: _156  and  _157
REMARK   60  A    between atoms: _156  and  _159
REMARK   61  A    between atoms: _159  and  _160
REMARK   62  A    between atoms: _160  and  _161
REMARK   63  A    between atoms: _163  and  _165
REMARK   64  A    between atoms: _165  and  _166
REMARK   65  A    between atoms: _165  and  _168
REMARK   66  A    between atoms: _168  and  _169
REMARK   67  A    between atoms: _169  and  _170
REMARK   68  A    between atoms: _170  and  _171
REMARK   69  A    between atoms: _180  and  _182
REMARK   70  A    between atoms: _182  and  _183
REMARK   71  A    between atoms: _182  and  _185
REMARK   72  A    between atoms: _185  and  _186
REMARK   73  A    between atoms: _189  and  _191
REMARK   74  A    between atoms: _191  and  _192
REMARK   75  A    between atoms: _194  and  _196
REMARK   76  A    between atoms: _196  and  _197
REMARK   77  A    between atoms: _196  and  _199
REMARK   78  A    between atoms: _199  and  _200
REMARK   79  A    between atoms: _200  and  _201
REMARK   80  A    between atoms: _204  and  _206
REMARK   81  A    between atoms: _206  and  _207
REMARK   82  A    between atoms: _206  and  _209
REMARK   83  A    between atoms: _209  and  _210
REMARK   84  A    between atoms: _213  and  _215
REMARK   85  A    between atoms: _215  and  _216
REMARK   86  A    between atoms: _215  and  _218
REMARK   87  A    between atoms: _218  and  _219
REMARK   88  A    between atoms: _225  and  _226
REMARK   89  A    between atoms: _231  and  _233
REMARK   90  A    between atoms: _233  and  _234
REMARK   91  A    between atoms: _233  and  _236
REMARK   92  A    between atoms: _236  and  _237
REMARK   93  A    between atoms: _239  and  _241
REMARK   94  A    between atoms: _241  and  _242
REMARK   95  A    between atoms: _241  and  _244
REMARK   96  A    between atoms: _244  and  _245
REMARK   97  A    between atoms: _245  and  _246
REMARK   98  A    between atoms: _246  and  _247
REMARK   99  A    between atoms: _256  and  _258
REMARK  100  A    between atoms: _258  and  _259
REMARK  101  A    between atoms: _258  and  _261
REMARK  102  A    between atoms: _261  and  _262
REMARK  103  A    between atoms: _262  and  _263
REMARK  104  A    between atoms: _268  and  _270
REMARK  105  A    between atoms: _270  and  _271
REMARK  106  A    between atoms: _270  and  _273
REMARK  107  A    between atoms: _276  and  _278
REMARK  108  A    between atoms: _278  and  _279
REMARK  109  A    between atoms: _281  and  _283
REMARK  110  A    between atoms: _283  and  _284
REMARK  111  A    between atoms: _283  and  _286
REMARK  112  A    between atoms: _286  and  _287
REMARK  113  A    between atoms: _287  and  _288
REMARK  114  A    between atoms: _288  and  _289
REMARK  115  A    between atoms: _298  and  _300
REMARK  116  A    between atoms: _300  and  _301
REMARK  117  A    between atoms: _300  and  _303
REMARK  118  A    between atoms: _303  and  _304
REMARK  119  A    between atoms: _309  and  _311
REMARK  120  A    between atoms: _311  and  _312
REMARK  121  A    between atoms: _311  and  _314
REMARK  122  A    between atoms: _314  and  _315
REMARK  123  A    between atoms: _318  and  _320
REMARK  124  A    between atoms: _320  and  _321
REMARK  125  A    between atoms: _320  and  _323
REMARK  126  A    between atoms: _323  and  _324
REMARK  127  A    between atoms: _327  and  _329
REMARK  128  A    between atoms: _329  and  _330
REMARK  129  A    between atoms: _332  and  _334
REMARK  130  A    between atoms: _334  and  _335
REMARK  131  A    between atoms: _337  and  _339
REMARK  132  A    between atoms: _339  and  _340
REMARK  133  A    between atoms: _339  and  _342
REMARK  134  A    between atoms: _342  and  _343
REMARK  135  A    between atoms: _345  and  _347
REMARK  136  A    between atoms: _347  and  _348
REMARK  137  A    between atoms: _347  and  _350
REMARK  138  A    between atoms: _350  and  _351
REMARK  139  A    between atoms: _351  and  _353
REMARK  140  A    between atoms: _353  and  CA_375
REMARK  141  A    between atoms: _354  and  _356
REMARK  142  A    between atoms: _356  and  _357
REMARK  143  A    between atoms: _356  and  _359
REMARK  144  A    between atoms: _359  and  _360
REMARK  145  A    between atoms: _360  and  _361
REMARK  146  A    between atoms: _364  and  _366
REMARK  147  A    between atoms: _366  and  _367
REMARK  148  A    between atoms: _366  and  _369
REMARK  149  A    between atoms: _369  and  _370
REMARK  150  A    between atoms: _370  and  _371
REMARK                            x       y       z     vdW  Elec       q    Type
REMARK                         _______ _______ _______ _____ _____    ______ ____
ROOT
ATOM      1  O   HOH     1      -7.698  87.759  24.482  0.00  0.00    +0.000 OA
ENDROOT
TORSDOF 0
REMARK  Name = ../refined-set-2016/1ucn/1ucn_pocket.pdb
REMARK  150 active torsions:
REMARK  status: ('A' for Active; 'I' for Inactive)
REMARK    1  A    between atoms: _1  and  _3
REMARK    2  A    between atoms: _3  and  _4
REMARK    3  A    between atoms: _3  and  _6
REMARK    4  A    between atoms: _6  and  _7
REMARK    5  A    between atoms: _7  and  _8
REMARK    6  A    between atoms: _8  and  _9
REMARK    7  A    between atoms: _9  and  _10
REMARK    8  A    between atoms: _14  and  _16
REMARK    9  A    between atoms: _16  and  _17
REMARK   10  A    between atoms: _16  and  _19
REMARK   11  A    between atoms: _19  and  _20
REMARK   12  A    between atoms: _23  and  _25
REMARK   13  A    between atoms: _25  and  _26
REMARK   14  A    between atoms: _25  and  _28
REMARK   15  A    between atoms: _28  and  _29
REMARK   16  A    between atoms: _34  and  _36
REMARK   17  A    between atoms: _36  and  _37
REMARK   18  A    between atoms: _36  and  _39
REMARK   19  A    between atoms: _39  and  _40
REMARK   20  A    between atoms: _45  and  _46
REMARK   21  A    between atoms: _48  and  _50
REMARK   22  A    between atoms: _50  and  _51
REMARK   23  A    between atoms: _50  and  _53
REMARK   24  A    between atoms: _53  and  _54
REMARK   25  A    between atoms: _57  and  _59
REMARK   26  A    between atoms: _59  and  _60
REMARK   27  A    between atoms: _59  and  _62
REMARK   28  A    between atoms: _62  and  _63
REMARK   29  A    between atoms: _66  and  _68
REMARK   30  A    between atoms: _68  and  _69
REMARK   31  A    between atoms: _68  and  _71
REMARK   32  A    between atoms: _71  and  _72
REMARK   33  A    between atoms: _72  and  _73
REMARK   34  A    between atoms: _73  and  _74
REMARK   35  A    between atoms: _84  and  _85
REMARK   36  A    between atoms: _90  and  _92
REMARK   37  A    between atoms: _92  and  _93
REMARK   38  A    between atoms: _92  and  _95
REMARK   39  A    between atoms: _95  and  _96
REMARK   40  A    between atoms: _106  and  _108
REMARK   41  A    between atoms: _108  and  _109
REMARK   42  A    between atoms: _108  and  _111
REMARK   43  A    between atoms: _111  and  _112
REMARK   44  A    between atoms: _118  and  _120
REMARK   45  A    between atoms: _120  and  _121
REMARK   46  A    between atoms: _123  and  _125
REMARK   47  A    between atoms: _125  and  _126
REMARK   48  A    between atoms: _125  and  _128
REMARK   49  A    between atoms: _128  and  _129
REMARK   50  A    between atoms: _132  and  _134
REMARK   51  A    between atoms: _134  and  _135
REMARK   52  A    between atoms: _134  and  _137
REMARK   53  A    between atoms: _140  and  _142
REMARK   54  A    between atoms: _142  and  _143
REMARK   55  A    between atoms: _142  and  _145
REMARK   56  A    between atoms: _145  and  _146
REMARK   57  A    between atoms: _151  and  _152
REMARK   58  A    between atoms: _154  and  _156
REMARK   59  A    between atoms: _156  and  _157
REMARK   60  A    between atoms: _156  and  _159
REMARK   61  A    between atoms: _159  and  _160
REMARK   62  A    between atoms: _160  and  _161
REMARK   63  A    between atoms: _163  and  _165
REMARK   64  A    between atoms: _165  and  _166
REMARK   65  A    between atoms: _165  and  _168
REMARK   66  A    between atoms: _168  and  _169
REMARK   67  A    between atoms: _169  and  _170
REMARK   68  A    between atoms: _170  and  _171
REMARK   69  A    between atoms: _180  and  _182
REMARK   70  A    between atoms: _182  and  _183
REMARK   71  A    between atoms: _182  and  _185
REMARK   72  A    between atoms: _185  and  _186
REMARK   73  A    between atoms: _189  and  _191
REMARK   74  A    between atoms: _191  and  _192
REMARK   75  A    between atoms: _194  and  _196
REMARK   76  A    between atoms: _196  and  _197
REMARK   77  A    between atoms: _196  and  _199
REMARK   78  A    between atoms: _199  and  _200
REMARK   79  A    between atoms: _200  and  _201
REMARK   80  A    between atoms: _204  and  _206
REMARK   81  A    between atoms: _206  and  _207
REMARK   82  A    between atoms: _206  and  _209
REMARK   83  A    between atoms: _209  and  _210
REMARK   84  A    between atoms: _213  and  _215
REMARK   85  A    between atoms: _215  and  _216
REMARK   86  A    between atoms: _215  and  _218
REMARK   87  A    between atoms: _218  and  _219
REMARK   88  A    between atoms: _225  and  _226
REMARK   89  A    between atoms: _231  and  _233
REMARK   90  A    between atoms: _233  and  _234
REMARK   91  A    between atoms: _233  and  _236
REMARK   92  A    between atoms: _236  and  _237
REMARK   93  A    between atoms: _239  and  _241
REMARK   94  A    between atoms: _241  and  _242
REMARK   95  A    between atoms: _241  and  _244
REMARK   96  A    between atoms: _244  and  _245
REMARK   97  A    between atoms: _245  and  _246
REMARK   98  A    between atoms: _246  and  _247
REMARK   99  A    between atoms: _256  and  _258
REMARK  100  A    between atoms: _258  and  _259
REMARK  101  A    between atoms: _258  and  _261
REMARK  102  A    between atoms: _261  and  _262
REMARK  103  A    between atoms: _262  and  _263
REMARK  104  A    between atoms: _268  and  _270
REMARK  105  A    between atoms: _270  and  _271
REMARK  106  A    between atoms: _270  and  _273
REMARK  107  A    between atoms: _276  and  _278
REMARK  108  A    between atoms: _278  and  _279
REMARK  109  A    between atoms: _281  and  _283
REMARK  110  A    between atoms: _283  and  _284
REMARK  111  A    between atoms: _283  and  _286
REMARK  112  A    between atoms: _286  and  _287
REMARK  113  A    between atoms: _287  and  _288
REMARK  114  A    between atoms: _288  and  _289
REMARK  115  A    between atoms: _298  and  _300
REMARK  116  A    between atoms: _300  and  _301
REMARK  117  A    between atoms: _300  and  _303
REMARK  118  A    between atoms: _303  and  _304
REMARK  119  A    between atoms: _309  and  _311
REMARK  120  A    between atoms: _311  and  _312
REMARK  121  A    between atoms: _311  and  _314
REMARK  122  A    between atoms: _314  and  _315
REMARK  123  A    between atoms: _318  and  _320
REMARK  124  A    between atoms: _320  and  _321
REMARK  125  A    between atoms: _320  and  _323
REMARK  126  A    between atoms: _323  and  _324
REMARK  127  A    between atoms: _327  and  _329
REMARK  128  A    between atoms: _329  and  _330
REMARK  129  A    between atoms: _332  and  _334
REMARK  130  A    between atoms: _334  and  _335
REMARK  131  A    between atoms: _337  and  _339
REMARK  132  A    between atoms: _339  and  _340
REMARK  133  A    between atoms: _339  and  _342
REMARK  134  A    between atoms: _342  and  _343
REMARK  135  A    between atoms: _345  and  _347
REMARK  136  A    between atoms: _347  and  _348
REMARK  137  A    between atoms: _347  and  _350
REMARK  138  A    between atoms: _350  and  _351
REMARK  139  A    between atoms: _351  and  _353
REMARK  140  A    between atoms: _353  and  CA_375
REMARK  141  A    between atoms: _354  and  _356
REMARK  142  A    between atoms: _356  and  _357
REMARK  143  A    between atoms: _356  and  _359
REMARK  144  A    between atoms: _359  and  _360
REMARK  145  A    between atoms: _360  and  _361
REMARK  146  A    between atoms: _364  and  _366
REMARK  147  A    between atoms: _366  and  _367
REMARK  148  A    between atoms: _366  and  _369
REMARK  149  A    between atoms: _369  and  _370
REMARK  150  A    between atoms: _370  and  _371
REMARK                            x       y       z     vdW  Elec       q    Type
REMARK                         _______ _______ _______ _____ _____    ______ ____
ROOT
ATOM      1  O   HOH     1     -12.561  88.426  26.051  0.00  0.00    +0.000 OA
ENDROOT
TORSDOF 0
