REMARK  Name = ../refined-set-2016/1lpg/1lpg_pocket.pdb
REMARK  230 active torsions:
REMARK  status: ('A' for Active; 'I' for Inactive)
REMARK    1  A    between atoms: _1  and  _5
REMARK    2  A    between atoms: _5  and  _6
REMARK    3  A    between atoms: _5  and  _8
REMARK    4  A    between atoms: _8  and  _9
REMARK    5  A    between atoms: _12  and  _14
REMARK    6  A    between atoms: _14  and  _15
REMARK    7  A    between atoms: _14  and  _17
REMARK    8  A    between atoms: _20  and  _22
REMARK    9  A    between atoms: _22  and  _23
REMARK   10  A    between atoms: _22  and  _25
REMARK   11  A    between atoms: _25  and  _26
REMARK   12  A    between atoms: _31  and  _33
REMARK   13  A    between atoms: _33  and  _34
REMARK   14  A    between atoms: _33  and  _36
REMARK   15  A    between atoms: _36  and  _37
REMARK   16  A    between atoms: _37  and  _38
REMARK   17  A    between atoms: _43  and  _45
REMARK   18  A    between atoms: _45  and  _46
REMARK   19  A    between atoms: _45  and  _48
REMARK   20  A    between atoms: _48  and  _49
REMARK   21  A    between atoms: _55  and  _57
REMARK   22  A    between atoms: _57  and  _58
REMARK   23  A    between atoms: _57  and  _60
REMARK   24  A    between atoms: _60  and  _61
REMARK   25  A    between atoms: _64  and  _66
REMARK   26  A    between atoms: _66  and  _67
REMARK   27  A    between atoms: _66  and  _69
REMARK   28  A    between atoms: _69  and  _70
REMARK   29  A    between atoms: _70  and  _71
REMARK   30  A    between atoms: _71  and  _72
REMARK   31  A    between atoms: _72  and  _73
REMARK   32  A    between atoms: _77  and  _79
REMARK   33  A    between atoms: _79  and  _80
REMARK   34  A    between atoms: _79  and  _82
REMARK   35  A    between atoms: _82  and  _83
REMARK   36  A    between atoms: _83  and  _84
REMARK   37  A    between atoms: _87  and  _89
REMARK   38  A    between atoms: _89  and  _90
REMARK   39  A    between atoms: _89  and  _92
REMARK   40  A    between atoms: _92  and  _93
REMARK   41  A    between atoms: _96  and  _98
REMARK   42  A    between atoms: _98  and  _99
REMARK   43  A    between atoms: _98  and  _101
REMARK   44  A    between atoms: _101  and  _102
REMARK   45  A    between atoms: _107  and  _108
REMARK   46  A    between atoms: _110  and  _112
REMARK   47  A    between atoms: _112  and  _113
REMARK   48  A    between atoms: _112  and  _115
REMARK   49  A    between atoms: _115  and  _116
REMARK   50  A    between atoms: _119  and  _121
REMARK   51  A    between atoms: _121  and  _122
REMARK   52  A    between atoms: _121  and  _124
REMARK   53  A    between atoms: _124  and  _125
REMARK   54  A    between atoms: _128  and  _130
REMARK   55  A    between atoms: _130  and  _131
REMARK   56  A    between atoms: _130  and  _133
REMARK   57  A    between atoms: _136  and  _138
REMARK   58  A    between atoms: _138  and  _139
REMARK   59  A    between atoms: _141  and  _143
REMARK   60  A    between atoms: _143  and  _144
REMARK   61  A    between atoms: _143  and  _146
REMARK   62  A    between atoms: _146  and  _147
REMARK   63  A    between atoms: _147  and  _148
REMARK   64  A    between atoms: _148  and  _149
REMARK   65  A    between atoms: _158  and  _160
REMARK   66  A    between atoms: _160  and  _161
REMARK   67  A    between atoms: _160  and  _163
REMARK   68  A    between atoms: _163  and  _164
REMARK   69  A    between atoms: _167  and  _169
REMARK   70  A    between atoms: _169  and  _170
REMARK   71  A    between atoms: _169  and  _172
REMARK   72  A    between atoms: _172  and  _173
REMARK   73  A    between atoms: _178  and  _180
REMARK   74  A    between atoms: _180  and  _181
REMARK   75  A    between atoms: _180  and  _183
REMARK   76  A    between atoms: _183  and  _184
REMARK   77  A    between atoms: _184  and  _185
REMARK   78  A    between atoms: _188  and  _190
REMARK   79  A    between atoms: _190  and  _191
REMARK   80  A    between atoms: _190  and  _193
REMARK   81  A    between atoms: _193  and  _194
REMARK   82  A    between atoms: _194  and  _195
REMARK   83  A    between atoms: _195  and  _196
REMARK   84  A    between atoms: _196  and  _197
REMARK   85  A    between atoms: _201  and  _203
REMARK   86  A    between atoms: _203  and  _204
REMARK   87  A    between atoms: _206  and  _208
REMARK   88  A    between atoms: _208  and  _209
REMARK   89  A    between atoms: _208  and  _211
REMARK   90  A    between atoms: _211  and  _212
REMARK   91  A    between atoms: _212  and  _213
REMARK   92  A    between atoms: _213  and  _214
REMARK   93  A    between atoms: _223  and  _225
REMARK   94  A    between atoms: _225  and  _226
REMARK   95  A    between atoms: _225  and  _228
REMARK   96  A    between atoms: _228  and  _229
REMARK   97  A    between atoms: _229  and  _230
REMARK   98  A    between atoms: _235  and  _237
REMARK   99  A    between atoms: _237  and  _238
REMARK  100  A    between atoms: _237  and  _240
REMARK  101  A    between atoms: _240  and  _241
REMARK  102  A    between atoms: _244  and  _246
REMARK  103  A    between atoms: _246  and  _247
REMARK  104  A    between atoms: _246  and  _249
REMARK  105  A    between atoms: _252  and  _254
REMARK  106  A    between atoms: _254  and  _255
REMARK  107  A    between atoms: _254  and  _257
REMARK  108  A    between atoms: _257  and  _258
REMARK  109  A    between atoms: _260  and  _262
REMARK  110  A    between atoms: _262  and  _263
REMARK  111  A    between atoms: _262  and  _265
REMARK  112  A    between atoms: _265  and  _266
REMARK  113  A    between atoms: _268  and  _270
REMARK  114  A    between atoms: _270  and  _271
REMARK  115  A    between atoms: _270  and  _273
REMARK  116  A    between atoms: _273  and  _274
REMARK  117  A    between atoms: _280  and  _282
REMARK  118  A    between atoms: _282  and  _283
REMARK  119  A    between atoms: _282  and  _285
REMARK  120  A    between atoms: _285  and  _286
REMARK  121  A    between atoms: _289  and  _291
REMARK  122  A    between atoms: _291  and  _292
REMARK  123  A    between atoms: _291  and  _294
REMARK  124  A    between atoms: _294  and  _295
REMARK  125  A    between atoms: _298  and  _300
REMARK  126  A    between atoms: _300  and  _301
REMARK  127  A    between atoms: _300  and  _303
REMARK  128  A    between atoms: _303  and  _304
REMARK  129  A    between atoms: _307  and  _309
REMARK  130  A    between atoms: _309  and  _310
REMARK  131  A    between atoms: _309  and  _312
REMARK  132  A    between atoms: _312  and  _313
REMARK  133  A    between atoms: _313  and  _314
REMARK  134  A    between atoms: _316  and  _318
REMARK  135  A    between atoms: _318  and  _319
REMARK  136  A    between atoms: _318  and  _321
REMARK  137  A    between atoms: _323  and  _325
REMARK  138  A    between atoms: _325  and  _326
REMARK  139  A    between atoms: _329  and  _331
REMARK  140  A    between atoms: _331  and  _332
REMARK  141  A    between atoms: _334  and  _336
REMARK  142  A    between atoms: _336  and  _337
REMARK  143  A    between atoms: _336  and  _339
REMARK  144  A    between atoms: _339  and  _340
REMARK  145  A    between atoms: _340  and  _341
REMARK  146  A    between atoms: _344  and  _346
REMARK  147  A    between atoms: _346  and  _347
REMARK  148  A    between atoms: _346  and  _349
REMARK  149  A    between atoms: _349  and  _350
REMARK  150  A    between atoms: _353  and  _355
REMARK  151  A    between atoms: _355  and  _356
REMARK  152  A    between atoms: _359  and  _361
REMARK  153  A    between atoms: _361  and  _362
REMARK  154  A    between atoms: _361  and  _364
REMARK  155  A    between atoms: _364  and  _365
REMARK  156  A    between atoms: _365  and  _468
REMARK  157  A    between atoms: _366  and  _368
REMARK  158  A    between atoms: _368  and  _369
REMARK  159  A    between atoms: _368  and  _371
REMARK  160  A    between atoms: _371  and  _372
REMARK  161  A    between atoms: _372  and  _373
REMARK  162  A    between atoms: _378  and  _380
REMARK  163  A    between atoms: _380  and  _381
REMARK  164  A    between atoms: _383  and  _385
REMARK  165  A    between atoms: _385  and  _386
REMARK  166  A    between atoms: _385  and  _388
REMARK  167  A    between atoms: _388  and  _389
REMARK  168  A    between atoms: _392  and  _394
REMARK  169  A    between atoms: _394  and  _395
REMARK  170  A    between atoms: _394  and  _397
REMARK  171  A    between atoms: _397  and  _398
REMARK  172  A    between atoms: _400  and  _402
REMARK  173  A    between atoms: _402  and  _403
REMARK  174  A    between atoms: _405  and  _407
REMARK  175  A    between atoms: _407  and  _408
REMARK  176  A    between atoms: _410  and  _412
REMARK  177  A    between atoms: _412  and  _413
REMARK  178  A    between atoms: _412  and  _415
REMARK  179  A    between atoms: _418  and  _420
REMARK  180  A    between atoms: _420  and  _421
REMARK  181  A    between atoms: _420  and  _423
REMARK  182  A    between atoms: _423  and  _424
REMARK  183  A    between atoms: _426  and  _428
REMARK  184  A    between atoms: _428  and  _429
REMARK  185  A    between atoms: _428  and  _431
REMARK  186  A    between atoms: _431  and  _432
REMARK  187  A    between atoms: _442  and  _444
REMARK  188  A    between atoms: _444  and  _445
REMARK  189  A    between atoms: _447  and  _449
REMARK  190  A    between atoms: _449  and  _450
REMARK  191  A    between atoms: _449  and  _452
REMARK  192  A    between atoms: _452  and  _453
REMARK  193  A    between atoms: _453  and  _454
REMARK  194  A    between atoms: _457  and  _459
REMARK  195  A    between atoms: _459  and  _460
REMARK  196  A    between atoms: _462  and  _464
REMARK  197  A    between atoms: _464  and  _465
REMARK  198  A    between atoms: _464  and  _467
REMARK  199  A    between atoms: _467  and  _468
REMARK  200  A    between atoms: _469  and  _471
REMARK  201  A    between atoms: _471  and  _472
REMARK  202  A    between atoms: _475  and  _477
REMARK  203  A    between atoms: _477  and  _478
REMARK  204  A    between atoms: _477  and  _480
REMARK  205  A    between atoms: _480  and  _481
REMARK  206  A    between atoms: _481  and  _482
REMARK  207  A    between atoms: _482  and  _483
REMARK  208  A    between atoms: _492  and  _494
REMARK  209  A    between atoms: _494  and  _495
REMARK  210  A    between atoms: _494  and  _497
REMARK  211  A    between atoms: _497  and  _498
REMARK  212  A    between atoms: _498  and  _499
REMARK  213  A    between atoms: _499  and  _500
REMARK  214  A    between atoms: _500  and  _501
REMARK  215  A    between atoms: _505  and  _507
REMARK  216  A    between atoms: _507  and  _508
REMARK  217  A    between atoms: _507  and  _510
REMARK  218  A    between atoms: _510  and  _511
REMARK  219  A    between atoms: _516  and  _517
REMARK  220  A    between atoms: _519  and  _521
REMARK  221  A    between atoms: _521  and  _522
REMARK  222  A    between atoms: _524  and  _526
REMARK  223  A    between atoms: _526  and  _527
REMARK  224  A    between atoms: _526  and  _529
REMARK  225  A    between atoms: _529  and  _530
REMARK  226  A    between atoms: _533  and  _535
REMARK  227  A    between atoms: _535  and  _536
REMARK  228  A    between atoms: _535  and  _538
REMARK  229  A    between atoms: _538  and  _539
REMARK  230  A    between atoms: _544  and  _545
REMARK                            x       y       z     vdW  Elec       q    Type
REMARK                         _______ _______ _______ _____ _____    ______ ____
ROOT
ATOM      1  C   ILE A   1       9.607  13.812  33.222  0.00  0.00    +0.202 C 
ATOM      2  O   ILE A   1       8.934  14.720  33.725  0.00  0.00    -0.277 OA
ATOM      3  N   VAL A   2       9.422  12.527  33.522  0.00  0.00    -0.301 N 
ATOM      4  H   VAL A   2       9.923  11.801  32.971  0.00  0.00    +0.150 HD
ENDROOT
BRANCH   1   5
ATOM      5  CA  ILE A   1      10.598  14.116  32.095  0.00  0.00    +0.013 C 
BRANCH   5   6
ATOM      6  N   ILE A   1       9.944  14.894  31.006  0.00  0.00    +0.387 N 
ATOM      7  H1  ILE A   1       9.588  15.793  31.389  0.00  0.00    -0.089 HD
ATOM      8  H2  ILE A   1       9.152  14.344  30.616  0.00  0.00    -0.089 HD
ATOM      9  H3  ILE A   1      10.637  15.087  30.255  0.00  0.00    -0.089 HD
ENDBRANCH   5   6
BRANCH   5  10
ATOM     10  CB  ILE A   1      11.831  14.870  32.657  0.00  0.00    -0.011 C 
ATOM     11  CG2 ILE A   1      12.409  14.164  33.881  0.00  0.00    -0.002 C 
BRANCH  10  12
ATOM     12  CG1 ILE A   1      12.876  15.145  31.560  0.00  0.00    -0.002 C 
ATOM     13  CD1 ILE A   1      13.654  13.915  31.058  0.00  0.00    -0.000 C 
ENDBRANCH  10  12
ENDBRANCH   5  10
ENDBRANCH   1   5
BRANCH   3  14
ATOM     14  CA  VAL A   2       8.533  12.110  34.605  0.00  0.00    +0.137 C 
BRANCH  14  15
ATOM     15  CB  VAL A   2       7.817  10.772  34.302  0.00  0.00    +0.026 C 
ATOM     16  CG2 VAL A   2       6.767  10.490  35.354  0.00  0.00    +0.002 C 
ATOM     17  CG1 VAL A   2       7.197  10.785  32.905  0.00  0.00    +0.002 C 
ENDBRANCH  14  15
BRANCH  14  18
ATOM     18  C   VAL A   2       9.431  11.955  35.831  0.00  0.00    +0.227 C 
ATOM     19  O   VAL A   2      10.490  11.310  35.766  0.00  0.00    -0.286 OA
ENDBRANCH  14  18
ENDBRANCH   3  14
TORSDOF 7
REMARK  Name = ../refined-set-2016/1lpg/1lpg_pocket.pdb
REMARK  230 active torsions:
REMARK  status: ('A' for Active; 'I' for Inactive)
REMARK    1  A    between atoms: _1  and  _5
REMARK    2  A    between atoms: _5  and  _6
REMARK    3  A    between atoms: _5  and  _8
REMARK    4  A    between atoms: _8  and  _9
REMARK    5  A    between atoms: _12  and  _14
REMARK    6  A    between atoms: _14  and  _15
REMARK    7  A    between atoms: _14  and  _17
REMARK    8  A    between atoms: _20  and  _22
REMARK    9  A    between atoms: _22  and  _23
REMARK   10  A    between atoms: _22  and  _25
REMARK   11  A    between atoms: _25  and  _26
REMARK   12  A    between atoms: _31  and  _33
REMARK   13  A    between atoms: _33  and  _34
REMARK   14  A    between atoms: _33  and  _36
REMARK   15  A    between atoms: _36  and  _37
REMARK   16  A    between atoms: _37  and  _38
REMARK   17  A    between atoms: _43  and  _45
REMARK   18  A    between atoms: _45  and  _46
REMARK   19  A    between atoms: _45  and  _48
REMARK   20  A    between atoms: _48  and  _49
REMARK   21  A    between atoms: _55  and  _57
REMARK   22  A    between atoms: _57  and  _58
REMARK   23  A    between atoms: _57  and  _60
REMARK   24  A    between atoms: _60  and  _61
REMARK   25  A    between atoms: _64  and  _66
REMARK   26  A    between atoms: _66  and  _67
REMARK   27  A    between atoms: _66  and  _69
REMARK   28  A    between atoms: _69  and  _70
REMARK   29  A    between atoms: _70  and  _71
REMARK   30  A    between atoms: _71  and  _72
REMARK   31  A    between atoms: _72  and  _73
REMARK   32  A    between atoms: _77  and  _79
REMARK   33  A    between atoms: _79  and  _80
REMARK   34  A    between atoms: _79  and  _82
REMARK   35  A    between atoms: _82  and  _83
REMARK   36  A    between atoms: _83  and  _84
REMARK   37  A    between atoms: _87  and  _89
REMARK   38  A    between atoms: _89  and  _90
REMARK   39  A    between atoms: _89  and  _92
REMARK   40  A    between atoms: _92  and  _93
REMARK   41  A    between atoms: _96  and  _98
REMARK   42  A    between atoms: _98  and  _99
REMARK   43  A    between atoms: _98  and  _101
REMARK   44  A    between atoms: _101  and  _102
REMARK   45  A    between atoms: _107  and  _108
REMARK   46  A    between atoms: _110  and  _112
REMARK   47  A    between atoms: _112  and  _113
REMARK   48  A    between atoms: _112  and  _115
REMARK   49  A    between atoms: _115  and  _116
REMARK   50  A    between atoms: _119  and  _121
REMARK   51  A    between atoms: _121  and  _122
REMARK   52  A    between atoms: _121  and  _124
REMARK   53  A    between atoms: _124  and  _125
REMARK   54  A    between atoms: _128  and  _130
REMARK   55  A    between atoms: _130  and  _131
REMARK   56  A    between atoms: _130  and  _133
REMARK   57  A    between atoms: _136  and  _138
REMARK   58  A    between atoms: _138  and  _139
REMARK   59  A    between atoms: _141  and  _143
REMARK   60  A    between atoms: _143  and  _144
REMARK   61  A    between atoms: _143  and  _146
REMARK   62  A    between atoms: _146  and  _147
REMARK   63  A    between atoms: _147  and  _148
REMARK   64  A    between atoms: _148  and  _149
REMARK   65  A    between atoms: _158  and  _160
REMARK   66  A    between atoms: _160  and  _161
REMARK   67  A    between atoms: _160  and  _163
REMARK   68  A    between atoms: _163  and  _164
REMARK   69  A    between atoms: _167  and  _169
REMARK   70  A    between atoms: _169  and  _170
REMARK   71  A    between atoms: _169  and  _172
REMARK   72  A    between atoms: _172  and  _173
REMARK   73  A    between atoms: _178  and  _180
REMARK   74  A    between atoms: _180  and  _181
REMARK   75  A    between atoms: _180  and  _183
REMARK   76  A    between atoms: _183  and  _184
REMARK   77  A    between atoms: _184  and  _185
REMARK   78  A    between atoms: _188  and  _190
REMARK   79  A    between atoms: _190  and  _191
REMARK   80  A    between atoms: _190  and  _193
REMARK   81  A    between atoms: _193  and  _194
REMARK   82  A    between atoms: _194  and  _195
REMARK   83  A    between atoms: _195  and  _196
REMARK   84  A    between atoms: _196  and  _197
REMARK   85  A    between atoms: _201  and  _203
REMARK   86  A    between atoms: _203  and  _204
REMARK   87  A    between atoms: _206  and  _208
REMARK   88  A    between atoms: _208  and  _209
REMARK   89  A    between atoms: _208  and  _211
REMARK   90  A    between atoms: _211  and  _212
REMARK   91  A    between atoms: _212  and  _213
REMARK   92  A    between atoms: _213  and  _214
REMARK   93  A    between atoms: _223  and  _225
REMARK   94  A    between atoms: _225  and  _226
REMARK   95  A    between atoms: _225  and  _228
REMARK   96  A    between atoms: _228  and  _229
REMARK   97  A    between atoms: _229  and  _230
REMARK   98  A    between atoms: _235  and  _237
REMARK   99  A    between atoms: _237  and  _238
REMARK  100  A    between atoms: _237  and  _240
REMARK  101  A    between atoms: _240  and  _241
REMARK  102  A    between atoms: _244  and  _246
REMARK  103  A    between atoms: _246  and  _247
REMARK  104  A    between atoms: _246  and  _249
REMARK  105  A    between atoms: _252  and  _254
REMARK  106  A    between atoms: _254  and  _255
REMARK  107  A    between atoms: _254  and  _257
REMARK  108  A    between atoms: _257  and  _258
REMARK  109  A    between atoms: _260  and  _262
REMARK  110  A    between atoms: _262  and  _263
REMARK  111  A    between atoms: _262  and  _265
REMARK  112  A    between atoms: _265  and  _266
REMARK  113  A    between atoms: _268  and  _270
REMARK  114  A    between atoms: _270  and  _271
REMARK  115  A    between atoms: _270  and  _273
REMARK  116  A    between atoms: _273  and  _274
REMARK  117  A    between atoms: _280  and  _282
REMARK  118  A    between atoms: _282  and  _283
REMARK  119  A    between atoms: _282  and  _285
REMARK  120  A    between atoms: _285  and  _286
REMARK  121  A    between atoms: _289  and  _291
REMARK  122  A    between atoms: _291  and  _292
REMARK  123  A    between atoms: _291  and  _294
REMARK  124  A    between atoms: _294  and  _295
REMARK  125  A    between atoms: _298  and  _300
REMARK  126  A    between atoms: _300  and  _301
REMARK  127  A    between atoms: _300  and  _303
REMARK  128  A    between atoms: _303  and  _304
REMARK  129  A    between atoms: _307  and  _309
REMARK  130  A    between atoms: _309  and  _310
REMARK  131  A    between atoms: _309  and  _312
REMARK  132  A    between atoms: _312  and  _313
REMARK  133  A    between atoms: _313  and  _314
REMARK  134  A    between atoms: _316  and  _318
REMARK  135  A    between atoms: _318  and  _319
REMARK  136  A    between atoms: _318  and  _321
REMARK  137  A    between atoms: _323  and  _325
REMARK  138  A    between atoms: _325  and  _326
REMARK  139  A    between atoms: _329  and  _331
REMARK  140  A    between atoms: _331  and  _332
REMARK  141  A    between atoms: _334  and  _336
REMARK  142  A    between atoms: _336  and  _337
REMARK  143  A    between atoms: _336  and  _339
REMARK  144  A    between atoms: _339  and  _340
REMARK  145  A    between atoms: _340  and  _341
REMARK  146  A    between atoms: _344  and  _346
REMARK  147  A    between atoms: _346  and  _347
REMARK  148  A    between atoms: _346  and  _349
REMARK  149  A    between atoms: _349  and  _350
REMARK  150  A    between atoms: _353  and  _355
REMARK  151  A    between atoms: _355  and  _356
REMARK  152  A    between atoms: _359  and  _361
REMARK  153  A    between atoms: _361  and  _362
REMARK  154  A    between atoms: _361  and  _364
REMARK  155  A    between atoms: _364  and  _365
REMARK  156  A    between atoms: _365  and  _468
REMARK  157  A    between atoms: _366  and  _368
REMARK  158  A    between atoms: _368  and  _369
REMARK  159  A    between atoms: _368  and  _371
REMARK  160  A    between atoms: _371  and  _372
REMARK  161  A    between atoms: _372  and  _373
REMARK  162  A    between atoms: _378  and  _380
REMARK  163  A    between atoms: _380  and  _381
REMARK  164  A    between atoms: _383  and  _385
REMARK  165  A    between atoms: _385  and  _386
REMARK  166  A    between atoms: _385  and  _388
REMARK  167  A    between atoms: _388  and  _389
REMARK  168  A    between atoms: _392  and  _394
REMARK  169  A    between atoms: _394  and  _395
REMARK  170  A    between atoms: _394  and  _397
REMARK  171  A    between atoms: _397  and  _398
REMARK  172  A    between atoms: _400  and  _402
REMARK  173  A    between atoms: _402  and  _403
REMARK  174  A    between atoms: _405  and  _407
REMARK  175  A    between atoms: _407  and  _408
REMARK  176  A    between atoms: _410  and  _412
REMARK  177  A    between atoms: _412  and  _413
REMARK  178  A    between atoms: _412  and  _415
REMARK  179  A    between atoms: _418  and  _420
REMARK  180  A    between atoms: _420  and  _421
REMARK  181  A    between atoms: _420  and  _423
REMARK  182  A    between atoms: _423  and  _424
REMARK  183  A    between atoms: _426  and  _428
REMARK  184  A    between atoms: _428  and  _429
REMARK  185  A    between atoms: _428  and  _431
REMARK  186  A    between atoms: _431  and  _432
REMARK  187  A    between atoms: _442  and  _444
REMARK  188  A    between atoms: _444  and  _445
REMARK  189  A    between atoms: _447  and  _449
REMARK  190  A    between atoms: _449  and  _450
REMARK  191  A    between atoms: _449  and  _452
REMARK  192  A    between atoms: _452  and  _453
REMARK  193  A    between atoms: _453  and  _454
REMARK  194  A    between atoms: _457  and  _459
REMARK  195  A    between atoms: _459  and  _460
REMARK  196  A    between atoms: _462  and  _464
REMARK  197  A    between atoms: _464  and  _465
REMARK  198  A    between atoms: _464  and  _467
REMARK  199  A    between atoms: _467  and  _468
REMARK  200  A    between atoms: _469  and  _471
REMARK  201  A    between atoms: _471  and  _472
REMARK  202  A    between atoms: _475  and  _477
REMARK  203  A    between atoms: _477  and  _478
REMARK  204  A    between atoms: _477  and  _480
REMARK  205  A    between atoms: _480  and  _481
REMARK  206  A    between atoms: _481  and  _482
REMARK  207  A    between atoms: _482  and  _483
REMARK  208  A    between atoms: _492  and  _494
REMARK  209  A    between atoms: _494  and  _495
REMARK  210  A    between atoms: _494  and  _497
REMARK  211  A    between atoms: _497  and  _498
REMARK  212  A    between atoms: _498  and  _499
REMARK  213  A    between atoms: _499  and  _500
REMARK  214  A    between atoms: _500  and  _501
REMARK  215  A    between atoms: _505  and  _507
REMARK  216  A    between atoms: _507  and  _508
REMARK  217  A    between atoms: _507  and  _510
REMARK  218  A    between atoms: _510  and  _511
REMARK  219  A    between atoms: _516  and  _517
REMARK  220  A    between atoms: _519  and  _521
REMARK  221  A    between atoms: _521  and  _522
REMARK  222  A    between atoms: _524  and  _526
REMARK  223  A    between atoms: _526  and  _527
REMARK  224  A    between atoms: _526  and  _529
REMARK  225  A    between atoms: _529  and  _530
REMARK  226  A    between atoms: _533  and  _535
REMARK  227  A    between atoms: _535  and  _536
REMARK  228  A    between atoms: _535  and  _538
REMARK  229  A    between atoms: _538  and  _539
REMARK  230  A    between atoms: _544  and  _545
REMARK                            x       y       z     vdW  Elec       q    Type
REMARK                         _______ _______ _______ _____ _____    ______ ____
ROOT
ATOM      1  CB  HIS A   1      12.044   9.615  14.774  0.00  0.00    +0.072 C 
ENDROOT
BRANCH   1   2
ATOM      2  CG  HIS A   1      11.832  10.005  16.211  0.00  0.00    +0.082 A 
ATOM      3  ND1 HIS A   1      12.668   9.593  17.230  0.00  0.00    -0.227 NA
ATOM      4  CE1 HIS A   1      12.222  10.056  18.384  0.00  0.00    +0.199 A 
ATOM      5  NE2 HIS A   1      11.125  10.757  18.154  0.00  0.00    -0.221 NA
ATOM      6  CD2 HIS A   1      10.860  10.742  16.805  0.00  0.00    +0.115 A 
ENDBRANCH   1   2
BRANCH   1   7
ATOM      7  CA  HIS A   1      12.623  10.733  13.884  0.00  0.00    +0.139 C 
BRANCH   7   8
ATOM      8  N   HIS A   1      14.079  10.757  13.929  0.00  0.00    -0.239 NA
ATOM      9  H   HIS A   1      14.580  10.255  14.690  0.00  0.00    +0.142 HD
ENDBRANCH   7   8
BRANCH   7  10
ATOM     10  C   HIS A   1      12.006  12.098  14.182  0.00  0.00    +0.224 C 
ATOM     11  O   HIS A   1      10.859  12.356  13.842  0.00  0.00    -0.287 OA
ENDBRANCH   7  10
ENDBRANCH   1   7
TORSDOF 4
REMARK  Name = ../refined-set-2016/1lpg/1lpg_pocket.pdb
REMARK  230 active torsions:
REMARK  status: ('A' for Active; 'I' for Inactive)
REMARK    1  A    between atoms: _1  and  _5
REMARK    2  A    between atoms: _5  and  _6
REMARK    3  A    between atoms: _5  and  _8
REMARK    4  A    between atoms: _8  and  _9
REMARK    5  A    between atoms: _12  and  _14
REMARK    6  A    between atoms: _14  and  _15
REMARK    7  A    between atoms: _14  and  _17
REMARK    8  A    between atoms: _20  and  _22
REMARK    9  A    between atoms: _22  and  _23
REMARK   10  A    between atoms: _22  and  _25
REMARK   11  A    between atoms: _25  and  _26
REMARK   12  A    between atoms: _31  and  _33
REMARK   13  A    between atoms: _33  and  _34
REMARK   14  A    between atoms: _33  and  _36
REMARK   15  A    between atoms: _36  and  _37
REMARK   16  A    between atoms: _37  and  _38
REMARK   17  A    between atoms: _43  and  _45
REMARK   18  A    between atoms: _45  and  _46
REMARK   19  A    between atoms: _45  and  _48
REMARK   20  A    between atoms: _48  and  _49
REMARK   21  A    between atoms: _55  and  _57
REMARK   22  A    between atoms: _57  and  _58
REMARK   23  A    between atoms: _57  and  _60
REMARK   24  A    between atoms: _60  and  _61
REMARK   25  A    between atoms: _64  and  _66
REMARK   26  A    between atoms: _66  and  _67
REMARK   27  A    between atoms: _66  and  _69
REMARK   28  A    between atoms: _69  and  _70
REMARK   29  A    between atoms: _70  and  _71
REMARK   30  A    between atoms: _71  and  _72
REMARK   31  A    between atoms: _72  and  _73
REMARK   32  A    between atoms: _77  and  _79
REMARK   33  A    between atoms: _79  and  _80
REMARK   34  A    between atoms: _79  and  _82
REMARK   35  A    between atoms: _82  and  _83
REMARK   36  A    between atoms: _83  and  _84
REMARK   37  A    between atoms: _87  and  _89
REMARK   38  A    between atoms: _89  and  _90
REMARK   39  A    between atoms: _89  and  _92
REMARK   40  A    between atoms: _92  and  _93
REMARK   41  A    between atoms: _96  and  _98
REMARK   42  A    between atoms: _98  and  _99
REMARK   43  A    between atoms: _98  and  _101
REMARK   44  A    between atoms: _101  and  _102
REMARK   45  A    between atoms: _107  and  _108
REMARK   46  A    between atoms: _110  and  _112
REMARK   47  A    between atoms: _112  and  _113
REMARK   48  A    between atoms: _112  and  _115
REMARK   49  A    between atoms: _115  and  _116
REMARK   50  A    between atoms: _119  and  _121
REMARK   51  A    between atoms: _121  and  _122
REMARK   52  A    between atoms: _121  and  _124
REMARK   53  A    between atoms: _124  and  _125
REMARK   54  A    between atoms: _128  and  _130
REMARK   55  A    between atoms: _130  and  _131
REMARK   56  A    between atoms: _130  and  _133
REMARK   57  A    between atoms: _136  and  _138
REMARK   58  A    between atoms: _138  and  _139
REMARK   59  A    between atoms: _141  and  _143
REMARK   60  A    between atoms: _143  and  _144
REMARK   61  A    between atoms: _143  and  _146
REMARK   62  A    between atoms: _146  and  _147
REMARK   63  A    between atoms: _147  and  _148
REMARK   64  A    between atoms: _148  and  _149
REMARK   65  A    between atoms: _158  and  _160
REMARK   66  A    between atoms: _160  and  _161
REMARK   67  A    between atoms: _160  and  _163
REMARK   68  A    between atoms: _163  and  _164
REMARK   69  A    between atoms: _167  and  _169
REMARK   70  A    between atoms: _169  and  _170
REMARK   71  A    between atoms: _169  and  _172
REMARK   72  A    between atoms: _172  and  _173
REMARK   73  A    between atoms: _178  and  _180
REMARK   74  A    between atoms: _180  and  _181
REMARK   75  A    between atoms: _180  and  _183
REMARK   76  A    between atoms: _183  and  _184
REMARK   77  A    between atoms: _184  and  _185
REMARK   78  A    between atoms: _188  and  _190
REMARK   79  A    between atoms: _190  and  _191
REMARK   80  A    between atoms: _190  and  _193
REMARK   81  A    between atoms: _193  and  _194
REMARK   82  A    between atoms: _194  and  _195
REMARK   83  A    between atoms: _195  and  _196
REMARK   84  A    between atoms: _196  and  _197
REMARK   85  A    between atoms: _201  and  _203
REMARK   86  A    between atoms: _203  and  _204
REMARK   87  A    between atoms: _206  and  _208
REMARK   88  A    between atoms: _208  and  _209
REMARK   89  A    between atoms: _208  and  _211
REMARK   90  A    between atoms: _211  and  _212
REMARK   91  A    between atoms: _212  and  _213
REMARK   92  A    between atoms: _213  and  _214
REMARK   93  A    between atoms: _223  and  _225
REMARK   94  A    between atoms: _225  and  _226
REMARK   95  A    between atoms: _225  and  _228
REMARK   96  A    between atoms: _228  and  _229
REMARK   97  A    between atoms: _229  and  _230
REMARK   98  A    between atoms: _235  and  _237
REMARK   99  A    between atoms: _237  and  _238
REMARK  100  A    between atoms: _237  and  _240
REMARK  101  A    between atoms: _240  and  _241
REMARK  102  A    between atoms: _244  and  _246
REMARK  103  A    between atoms: _246  and  _247
REMARK  104  A    between atoms: _246  and  _249
REMARK  105  A    between atoms: _252  and  _254
REMARK  106  A    between atoms: _254  and  _255
REMARK  107  A    between atoms: _254  and  _257
REMARK  108  A    between atoms: _257  and  _258
REMARK  109  A    between atoms: _260  and  _262
REMARK  110  A    between atoms: _262  and  _263
REMARK  111  A    between atoms: _262  and  _265
REMARK  112  A    between atoms: _265  and  _266
REMARK  113  A    between atoms: _268  and  _270
REMARK  114  A    between atoms: _270  and  _271
REMARK  115  A    between atoms: _270  and  _273
REMARK  116  A    between atoms: _273  and  _274
REMARK  117  A    between atoms: _280  and  _282
REMARK  118  A    between atoms: _282  and  _283
REMARK  119  A    between atoms: _282  and  _285
REMARK  120  A    between atoms: _285  and  _286
REMARK  121  A    between atoms: _289  and  _291
REMARK  122  A    between atoms: _291  and  _292
REMARK  123  A    between atoms: _291  and  _294
REMARK  124  A    between atoms: _294  and  _295
REMARK  125  A    between atoms: _298  and  _300
REMARK  126  A    between atoms: _300  and  _301
REMARK  127  A    between atoms: _300  and  _303
REMARK  128  A    between atoms: _303  and  _304
REMARK  129  A    between atoms: _307  and  _309
REMARK  130  A    between atoms: _309  and  _310
REMARK  131  A    between atoms: _309  and  _312
REMARK  132  A    between atoms: _312  and  _313
REMARK  133  A    between atoms: _313  and  _314
REMARK  134  A    between atoms: _316  and  _318
REMARK  135  A    between atoms: _318  and  _319
REMARK  136  A    between atoms: _318  and  _321
REMARK  137  A    between atoms: _323  and  _325
REMARK  138  A    between atoms: _325  and  _326
REMARK  139  A    between atoms: _329  and  _331
REMARK  140  A    between atoms: _331  and  _332
REMARK  141  A    between atoms: _334  and  _336
REMARK  142  A    between atoms: _336  and  _337
REMARK  143  A    between atoms: _336  and  _339
REMARK  144  A    between atoms: _339  and  _340
REMARK  145  A    between atoms: _340  and  _341
REMARK  146  A    between atoms: _344  and  _346
REMARK  147  A    between atoms: _346  and  _347
REMARK  148  A    between atoms: _346  and  _349
REMARK  149  A    between atoms: _349  and  _350
REMARK  150  A    between atoms: _353  and  _355
REMARK  151  A    between atoms: _355  and  _356
REMARK  152  A    between atoms: _359  and  _361
REMARK  153  A    between atoms: _361  and  _362
REMARK  154  A    between atoms: _361  and  _364
REMARK  155  A    between atoms: _364  and  _365
REMARK  156  A    between atoms: _365  and  _468
REMARK  157  A    between atoms: _366  and  _368
REMARK  158  A    between atoms: _368  and  _369
REMARK  159  A    between atoms: _368  and  _371
REMARK  160  A    between atoms: _371  and  _372
REMARK  161  A    between atoms: _372  and  _373
REMARK  162  A    between atoms: _378  and  _380
REMARK  163  A    between atoms: _380  and  _381
REMARK  164  A    between atoms: _383  and  _385
REMARK  165  A    between atoms: _385  and  _386
REMARK  166  A    between atoms: _385  and  _388
REMARK  167  A    between atoms: _388  and  _389
REMARK  168  A    between atoms: _392  and  _394
REMARK  169  A    between atoms: _394  and  _395
REMARK  170  A    between atoms: _394  and  _397
REMARK  171  A    between atoms: _397  and  _398
REMARK  172  A    between atoms: _400  and  _402
REMARK  173  A    between atoms: _402  and  _403
REMARK  174  A    between atoms: _405  and  _407
REMARK  175  A    between atoms: _407  and  _408
REMARK  176  A    between atoms: _410  and  _412
REMARK  177  A    between atoms: _412  and  _413
REMARK  178  A    between atoms: _412  and  _415
REMARK  179  A    between atoms: _418  and  _420
REMARK  180  A    between atoms: _420  and  _421
REMARK  181  A    between atoms: _420  and  _423
REMARK  182  A    between atoms: _423  and  _424
REMARK  183  A    between atoms: _426  and  _428
REMARK  184  A    between atoms: _428  and  _429
REMARK  185  A    between atoms: _428  and  _431
REMARK  186  A    between atoms: _431  and  _432
REMARK  187  A    between atoms: _442  and  _444
REMARK  188  A    between atoms: _444  and  _445
REMARK  189  A    between atoms: _447  and  _449
REMARK  190  A    between atoms: _449  and  _450
REMARK  191  A    between atoms: _449  and  _452
REMARK  192  A    between atoms: _452  and  _453
REMARK  193  A    between atoms: _453  and  _454
REMARK  194  A    between atoms: _457  and  _459
REMARK  195  A    between atoms: _459  and  _460
REMARK  196  A    between atoms: _462  and  _464
REMARK  197  A    between atoms: _464  and  _465
REMARK  198  A    between atoms: _464  and  _467
REMARK  199  A    between atoms: _467  and  _468
REMARK  200  A    between atoms: _469  and  _471
REMARK  201  A    between atoms: _471  and  _472
REMARK  202  A    between atoms: _475  and  _477
REMARK  203  A    between atoms: _477  and  _478
REMARK  204  A    between atoms: _477  and  _480
REMARK  205  A    between atoms: _480  and  _481
REMARK  206  A    between atoms: _481  and  _482
REMARK  207  A    between atoms: _482  and  _483
REMARK  208  A    between atoms: _492  and  _494
REMARK  209  A    between atoms: _494  and  _495
REMARK  210  A    between atoms: _494  and  _497
REMARK  211  A    between atoms: _497  and  _498
REMARK  212  A    between atoms: _498  and  _499
REMARK  213  A    between atoms: _499  and  _500
REMARK  214  A    between atoms: _500  and  _501
REMARK  215  A    between atoms: _505  and  _507
REMARK  216  A    between atoms: _507  and  _508
REMARK  217  A    between atoms: _507  and  _510
REMARK  218  A    between atoms: _510  and  _511
REMARK  219  A    between atoms: _516  and  _517
REMARK  220  A    between atoms: _519  and  _521
REMARK  221  A    between atoms: _521  and  _522
REMARK  222  A    between atoms: _524  and  _526
REMARK  223  A    between atoms: _526  and  _527
REMARK  224  A    between atoms: _526  and  _529
REMARK  225  A    between atoms: _529  and  _530
REMARK  226  A    between atoms: _533  and  _535
REMARK  227  A    between atoms: _535  and  _536
REMARK  228  A    between atoms: _535  and  _538
REMARK  229  A    between atoms: _538  and  _539
REMARK  230  A    between atoms: _544  and  _545
REMARK                            x       y       z     vdW  Elec       q    Type
REMARK                         _______ _______ _______ _____ _____    ______ ____
ROOT
ATOM      1  CB  GLN A   1       7.683  16.226  15.063  0.00  0.00    +0.035 C 
ENDROOT
BRANCH   1   2
ATOM      2  CA  GLN A   1       7.488  16.364  13.547  0.00  0.00    +0.134 C 
BRANCH   2   3
ATOM      3  N   GLN A   1       8.504  15.632  12.790  0.00  0.00    -0.239 NA
ATOM      4  H   GLN A   1       9.392  15.358  13.257  0.00  0.00    +0.142 HD
ENDBRANCH   2   3
BRANCH   2   5
ATOM      5  C   GLN A   1       7.293  17.831  13.167  0.00  0.00    +0.224 C 
ATOM      6  O   GLN A   1       6.431  18.500  13.733  0.00  0.00    -0.287 OA
ENDBRANCH   2   5
ENDBRANCH   1   2
BRANCH   1   7
ATOM      7  CG  GLN A   1       8.843  15.347  15.494  0.00  0.00    +0.087 C 
BRANCH   7   8
ATOM      8  CD  GLN A   1       8.404  13.973  15.943  0.00  0.00    +0.219 C 
ATOM      9  OE1 GLN A   1       8.581  13.604  17.092  0.00  0.00    -0.275 OA
ATOM     10  NE2 GLN A   1       7.824  13.207  15.027  0.00  0.00    -0.329 N 
ATOM     11 HE21 GLN A   1       7.500  12.251  15.278  0.00  0.00    +0.145 HD
ATOM     12 HE22 GLN A   1       7.693  13.563  14.059  0.00  0.00    +0.145 HD
ENDBRANCH   7   8
ENDBRANCH   1   7
TORSDOF 5
REMARK  Name = ../refined-set-2016/1lpg/1lpg_pocket.pdb
REMARK  230 active torsions:
REMARK  status: ('A' for Active; 'I' for Inactive)
REMARK    1  A    between atoms: _1  and  _5
REMARK    2  A    between atoms: _5  and  _6
REMARK    3  A    between atoms: _5  and  _8
REMARK    4  A    between atoms: _8  and  _9
REMARK    5  A    between atoms: _12  and  _14
REMARK    6  A    between atoms: _14  and  _15
REMARK    7  A    between atoms: _14  and  _17
REMARK    8  A    between atoms: _20  and  _22
REMARK    9  A    between atoms: _22  and  _23
REMARK   10  A    between atoms: _22  and  _25
REMARK   11  A    between atoms: _25  and  _26
REMARK   12  A    between atoms: _31  and  _33
REMARK   13  A    between atoms: _33  and  _34
REMARK   14  A    between atoms: _33  and  _36
REMARK   15  A    between atoms: _36  and  _37
REMARK   16  A    between atoms: _37  and  _38
REMARK   17  A    between atoms: _43  and  _45
REMARK   18  A    between atoms: _45  and  _46
REMARK   19  A    between atoms: _45  and  _48
REMARK   20  A    between atoms: _48  and  _49
REMARK   21  A    between atoms: _55  and  _57
REMARK   22  A    between atoms: _57  and  _58
REMARK   23  A    between atoms: _57  and  _60
REMARK   24  A    between atoms: _60  and  _61
REMARK   25  A    between atoms: _64  and  _66
REMARK   26  A    between atoms: _66  and  _67
REMARK   27  A    between atoms: _66  and  _69
REMARK   28  A    between atoms: _69  and  _70
REMARK   29  A    between atoms: _70  and  _71
REMARK   30  A    between atoms: _71  and  _72
REMARK   31  A    between atoms: _72  and  _73
REMARK   32  A    between atoms: _77  and  _79
REMARK   33  A    between atoms: _79  and  _80
REMARK   34  A    between atoms: _79  and  _82
REMARK   35  A    between atoms: _82  and  _83
REMARK   36  A    between atoms: _83  and  _84
REMARK   37  A    between atoms: _87  and  _89
REMARK   38  A    between atoms: _89  and  _90
REMARK   39  A    between atoms: _89  and  _92
REMARK   40  A    between atoms: _92  and  _93
REMARK   41  A    between atoms: _96  and  _98
REMARK   42  A    between atoms: _98  and  _99
REMARK   43  A    between atoms: _98  and  _101
REMARK   44  A    between atoms: _101  and  _102
REMARK   45  A    between atoms: _107  and  _108
REMARK   46  A    between atoms: _110  and  _112
REMARK   47  A    between atoms: _112  and  _113
REMARK   48  A    between atoms: _112  and  _115
REMARK   49  A    between atoms: _115  and  _116
REMARK   50  A    between atoms: _119  and  _121
REMARK   51  A    between atoms: _121  and  _122
REMARK   52  A    between atoms: _121  and  _124
REMARK   53  A    between atoms: _124  and  _125
REMARK   54  A    between atoms: _128  and  _130
REMARK   55  A    between atoms: _130  and  _131
REMARK   56  A    between atoms: _130  and  _133
REMARK   57  A    between atoms: _136  and  _138
REMARK   58  A    between atoms: _138  and  _139
REMARK   59  A    between atoms: _141  and  _143
REMARK   60  A    between atoms: _143  and  _144
REMARK   61  A    between atoms: _143  and  _146
REMARK   62  A    between atoms: _146  and  _147
REMARK   63  A    between atoms: _147  and  _148
REMARK   64  A    between atoms: _148  and  _149
REMARK   65  A    between atoms: _158  and  _160
REMARK   66  A    between atoms: _160  and  _161
REMARK   67  A    between atoms: _160  and  _163
REMARK   68  A    between atoms: _163  and  _164
REMARK   69  A    between atoms: _167  and  _169
REMARK   70  A    between atoms: _169  and  _170
REMARK   71  A    between atoms: _169  and  _172
REMARK   72  A    between atoms: _172  and  _173
REMARK   73  A    between atoms: _178  and  _180
REMARK   74  A    between atoms: _180  and  _181
REMARK   75  A    between atoms: _180  and  _183
REMARK   76  A    between atoms: _183  and  _184
REMARK   77  A    between atoms: _184  and  _185
REMARK   78  A    between atoms: _188  and  _190
REMARK   79  A    between atoms: _190  and  _191
REMARK   80  A    between atoms: _190  and  _193
REMARK   81  A    between atoms: _193  and  _194
REMARK   82  A    between atoms: _194  and  _195
REMARK   83  A    between atoms: _195  and  _196
REMARK   84  A    between atoms: _196  and  _197
REMARK   85  A    between atoms: _201  and  _203
REMARK   86  A    between atoms: _203  and  _204
REMARK   87  A    between atoms: _206  and  _208
REMARK   88  A    between atoms: _208  and  _209
REMARK   89  A    between atoms: _208  and  _211
REMARK   90  A    between atoms: _211  and  _212
REMARK   91  A    between atoms: _212  and  _213
REMARK   92  A    between atoms: _213  and  _214
REMARK   93  A    between atoms: _223  and  _225
REMARK   94  A    between atoms: _225  and  _226
REMARK   95  A    between atoms: _225  and  _228
REMARK   96  A    between atoms: _228  and  _229
REMARK   97  A    between atoms: _229  and  _230
REMARK   98  A    between atoms: _235  and  _237
REMARK   99  A    between atoms: _237  and  _238
REMARK  100  A    between atoms: _237  and  _240
REMARK  101  A    between atoms: _240  and  _241
REMARK  102  A    between atoms: _244  and  _246
REMARK  103  A    between atoms: _246  and  _247
REMARK  104  A    between atoms: _246  and  _249
REMARK  105  A    between atoms: _252  and  _254
REMARK  106  A    between atoms: _254  and  _255
REMARK  107  A    between atoms: _254  and  _257
REMARK  108  A    between atoms: _257  and  _258
REMARK  109  A    between atoms: _260  and  _262
REMARK  110  A    between atoms: _262  and  _263
REMARK  111  A    between atoms: _262  and  _265
REMARK  112  A    between atoms: _265  and  _266
REMARK  113  A    between atoms: _268  and  _270
REMARK  114  A    between atoms: _270  and  _271
REMARK  115  A    between atoms: _270  and  _273
REMARK  116  A    between atoms: _273  and  _274
REMARK  117  A    between atoms: _280  and  _282
REMARK  118  A    between atoms: _282  and  _283
REMARK  119  A    between atoms: _282  and  _285
REMARK  120  A    between atoms: _285  and  _286
REMARK  121  A    between atoms: _289  and  _291
REMARK  122  A    between atoms: _291  and  _292
REMARK  123  A    between atoms: _291  and  _294
REMARK  124  A    between atoms: _294  and  _295
REMARK  125  A    between atoms: _298  and  _300
REMARK  126  A    between atoms: _300  and  _301
REMARK  127  A    between atoms: _300  and  _303
REMARK  128  A    between atoms: _303  and  _304
REMARK  129  A    between atoms: _307  and  _309
REMARK  130  A    between atoms: _309  and  _310
REMARK  131  A    between atoms: _309  and  _312
REMARK  132  A    between atoms: _312  and  _313
REMARK  133  A    between atoms: _313  and  _314
REMARK  134  A    between atoms: _316  and  _318
REMARK  135  A    between atoms: _318  and  _319
REMARK  136  A    between atoms: _318  and  _321
REMARK  137  A    between atoms: _323  and  _325
REMARK  138  A    between atoms: _325  and  _326
REMARK  139  A    between atoms: _329  and  _331
REMARK  140  A    between atoms: _331  and  _332
REMARK  141  A    between atoms: _334  and  _336
REMARK  142  A    between atoms: _336  and  _337
REMARK  143  A    between atoms: _336  and  _339
REMARK  144  A    between atoms: _339  and  _340
REMARK  145  A    between atoms: _340  and  _341
REMARK  146  A    between atoms: _344  and  _346
REMARK  147  A    between atoms: _346  and  _347
REMARK  148  A    between atoms: _346  and  _349
REMARK  149  A    between atoms: _349  and  _350
REMARK  150  A    between atoms: _353  and  _355
REMARK  151  A    between atoms: _355  and  _356
REMARK  152  A    between atoms: _359  and  _361
REMARK  153  A    between atoms: _361  and  _362
REMARK  154  A    between atoms: _361  and  _364
REMARK  155  A    between atoms: _364  and  _365
REMARK  156  A    between atoms: _365  and  _468
REMARK  157  A    between atoms: _366  and  _368
REMARK  158  A    between atoms: _368  and  _369
REMARK  159  A    between atoms: _368  and  _371
REMARK  160  A    between atoms: _371  and  _372
REMARK  161  A    between atoms: _372  and  _373
REMARK  162  A    between atoms: _378  and  _380
REMARK  163  A    between atoms: _380  and  _381
REMARK  164  A    between atoms: _383  and  _385
REMARK  165  A    between atoms: _385  and  _386
REMARK  166  A    between atoms: _385  and  _388
REMARK  167  A    between atoms: _388  and  _389
REMARK  168  A    between atoms: _392  and  _394
REMARK  169  A    between atoms: _394  and  _395
REMARK  170  A    between atoms: _394  and  _397
REMARK  171  A    between atoms: _397  and  _398
REMARK  172  A    between atoms: _400  and  _402
REMARK  173  A    between atoms: _402  and  _403
REMARK  174  A    between atoms: _405  and  _407
REMARK  175  A    between atoms: _407  and  _408
REMARK  176  A    between atoms: _410  and  _412
REMARK  177  A    between atoms: _412  and  _413
REMARK  178  A    between atoms: _412  and  _415
REMARK  179  A    between atoms: _418  and  _420
REMARK  180  A    between atoms: _420  and  _421
REMARK  181  A    between atoms: _420  and  _423
REMARK  182  A    between atoms: _423  and  _424
REMARK  183  A    between atoms: _426  and  _428
REMARK  184  A    between atoms: _428  and  _429
REMARK  185  A    between atoms: _428  and  _431
REMARK  186  A    between atoms: _431  and  _432
REMARK  187  A    between atoms: _442  and  _444
REMARK  188  A    between atoms: _444  and  _445
REMARK  189  A    between atoms: _447  and  _449
REMARK  190  A    between atoms: _449  and  _450
REMARK  191  A    between atoms: _449  and  _452
REMARK  192  A    between atoms: _452  and  _453
REMARK  193  A    between atoms: _453  and  _454
REMARK  194  A    between atoms: _457  and  _459
REMARK  195  A    between atoms: _459  and  _460
REMARK  196  A    between atoms: _462  and  _464
REMARK  197  A    between atoms: _464  and  _465
REMARK  198  A    between atoms: _464  and  _467
REMARK  199  A    between atoms: _467  and  _468
REMARK  200  A    between atoms: _469  and  _471
REMARK  201  A    between atoms: _471  and  _472
REMARK  202  A    between atoms: _475  and  _477
REMARK  203  A    between atoms: _477  and  _478
REMARK  204  A    between atoms: _477  and  _480
REMARK  205  A    between atoms: _480  and  _481
REMARK  206  A    between atoms: _481  and  _482
REMARK  207  A    between atoms: _482  and  _483
REMARK  208  A    between atoms: _492  and  _494
REMARK  209  A    between atoms: _494  and  _495
REMARK  210  A    between atoms: _494  and  _497
REMARK  211  A    between atoms: _497  and  _498
REMARK  212  A    between atoms: _498  and  _499
REMARK  213  A    between atoms: _499  and  _500
REMARK  214  A    between atoms: _500  and  _501
REMARK  215  A    between atoms: _505  and  _507
REMARK  216  A    between atoms: _507  and  _508
REMARK  217  A    between atoms: _507  and  _510
REMARK  218  A    between atoms: _510  and  _511
REMARK  219  A    between atoms: _516  and  _517
REMARK  220  A    between atoms: _519  and  _521
REMARK  221  A    between atoms: _521  and  _522
REMARK  222  A    between atoms: _524  and  _526
REMARK  223  A    between atoms: _526  and  _527
REMARK  224  A    between atoms: _526  and  _529
REMARK  225  A    between atoms: _529  and  _530
REMARK  226  A    between atoms: _533  and  _535
REMARK  227  A    between atoms: _535  and  _536
REMARK  228  A    between atoms: _535  and  _538
REMARK  229  A    between atoms: _538  and  _539
REMARK  230  A    between atoms: _544  and  _545
REMARK                            x       y       z     vdW  Elec       q    Type
REMARK                         _______ _______ _______ _____ _____    ______ ____
ROOT
ATOM      1  CA  GLU A   4       9.432   1.031  11.382  0.00  0.00    +0.149 C 
ENDROOT
BRANCH   1   4
ATOM      2  C   LYS A   3       9.826   3.418  11.583  0.00  0.00    +0.241 C 
ATOM      3  O   LYS A   3       9.128   3.495  12.583  0.00  0.00    -0.273 OA
ATOM      4  N   GLU A   4      10.061   2.273  10.957  0.00  0.00    -0.297 N 
ATOM      5  H   GLU A   4      10.709   2.262  10.144  0.00  0.00    +0.150 HD
BRANCH   2   6
ATOM      6  CA  LYS A   3      10.537   4.643  11.020  0.00  0.00    +0.149 C 
BRANCH   6   9
ATOM      7  C   THR A   2      12.697   3.570  10.715  0.00  0.00    +0.243 C 
ATOM      8  O   THR A   2      12.723   3.175  11.879  0.00  0.00    -0.273 OA
ATOM      9  N   LYS A   3      11.687   4.268  10.212  0.00  0.00    -0.297 N 
ATOM     10  H   LYS A   3      11.718   4.555   9.213  0.00  0.00    +0.150 HD
BRANCH   7  11
ATOM     11  CA  THR A   2      13.834   3.258   9.746  0.00  0.00    +0.176 C 
BRANCH  11  13
ATOM     12  C   PHE A   1      15.707   4.731   9.326  0.00  0.00    +0.239 C 
ATOM     13  N   THR A   2      15.071   3.908  10.150  0.00  0.00    -0.295 N 
ATOM     14  H   THR A   2      15.462   3.725  11.096  0.00  0.00    +0.150 HD
ATOM     15  O   PHE A   1      15.279   5.045   8.230  0.00  0.00    -0.274 OA
BRANCH  12  16
ATOM     16  CA  PHE A   1      16.963   5.368   9.861  0.00  0.00    +0.149 C 
BRANCH  16  17
ATOM     17  N   PHE A   1      18.054   5.222   8.900  0.00  0.00    -0.238 NA
ATOM     18  H   PHE A   1      18.464   6.065   8.450  0.00  0.00    +0.142 HD
ENDBRANCH  16  17
BRANCH  16  19
ATOM     19  CB  PHE A   1      16.656   6.836  10.201  0.00  0.00    +0.053 C 
BRANCH  19  20
ATOM     20  CG  PHE A   1      15.350   7.025  10.948  0.00  0.00    -0.020 A 
ATOM     21  CD2 PHE A   1      15.173   6.485  12.219  0.00  0.00    -0.004 A 
ATOM     22  CE2 PHE A   1      13.960   6.618  12.891  0.00  0.00    -0.000 A 
ATOM     23  CZ  PHE A   1      12.898   7.301  12.292  0.00  0.00    -0.000 A 
ATOM     24  CE1 PHE A   1      13.058   7.849  11.029  0.00  0.00    -0.000 A 
ATOM     25  CD1 PHE A   1      14.285   7.709  10.362  0.00  0.00    -0.004 A 
ENDBRANCH  19  20
ENDBRANCH  16  19
ENDBRANCH  12  16
ENDBRANCH  11  13
BRANCH  11  26
ATOM     26  CB  THR A   2      13.997   1.732   9.509  0.00  0.00    +0.137 C 
ATOM     27  CG2 THR A   2      14.931   1.097  10.535  0.00  0.00    +0.034 C 
BRANCH  26  28
ATOM     28  OG1 THR A   2      12.713   1.094   9.563  0.00  0.00    -0.382 OA
ATOM     29  HG1 THR A   2      12.307   1.247  10.453  0.00  0.00    +0.210 HD
ENDBRANCH  26  28
ENDBRANCH  11  26
ENDBRANCH   7  11
ENDBRANCH   6   9
BRANCH   6  30
ATOM     30  CB  LYS A   3       9.565   5.483  10.187  0.00  0.00    +0.029 C 
BRANCH  30  31
ATOM     31  CG  LYS A   3       8.627   6.378  11.002  0.00  0.00    +0.000 C 
BRANCH  31  32
ATOM     32  CD  LYS A   3       9.368   7.547  11.662  0.00  0.00    -0.024 C 
BRANCH  32  33
ATOM     33  CE  LYS A   3       8.415   8.675  12.029  0.00  0.00    -0.086 C 
BRANCH  33  34
ATOM     34  NZ  LYS A   3       9.107   9.766  12.759  0.00  0.00    +0.380 N 
ATOM     35  HZ1 LYS A   3       9.519   9.388  13.636  0.00  0.00    -0.089 HD
ATOM     36  HZ2 LYS A   3       8.423  10.515  12.991  0.00  0.00    -0.089 HD
ATOM     37  HZ3 LYS A   3       9.862  10.158  12.160  0.00  0.00    -0.089 HD
ENDBRANCH  33  34
ENDBRANCH  32  33
ENDBRANCH  31  32
ENDBRANCH  30  31
ENDBRANCH   6  30
ENDBRANCH   2   6
ENDBRANCH   1   4
BRANCH   1  38
ATOM     38  C   GLU A   4       9.907   0.481  12.730  0.00  0.00    +0.241 C 
ATOM     39  O   GLU A   4       9.131  -0.115  13.469  0.00  0.00    -0.273 OA
ATOM     40  N   THR A   5      11.179   0.691  13.049  0.00  0.00    -0.295 N 
ATOM     41  H   THR A   5      11.782   1.241  12.404  0.00  0.00    +0.150 HD
BRANCH  40  42
ATOM     42  CA  THR A   5      11.748   0.167  14.284  0.00  0.00    +0.176 C 
BRANCH  42  43
ATOM     43  C   THR A   5      12.511   1.213  15.079  0.00  0.00    +0.243 C 
ATOM     44  O   THR A   5      12.872   0.995  16.246  0.00  0.00    -0.273 OA
ATOM     45  N   TYR A   6      12.759   2.341  14.426  0.00  0.00    -0.297 N 
ATOM     46  H   TYR A   6      12.395   2.442  13.457  0.00  0.00    +0.150 HD
BRANCH  45  47
ATOM     47  CA  TYR A   6      13.515   3.443  15.000  0.00  0.00    +0.153 C 
BRANCH  47  48
ATOM     48  C   TYR A   6      14.989   3.111  15.093  0.00  0.00    +0.241 C 
ATOM     49  O   TYR A   6      15.710   3.681  15.893  0.00  0.00    -0.273 OA
ATOM     50  N   ASP A   7      15.421   2.138  14.300  0.00  0.00    -0.298 N 
ATOM     51  H   ASP A   7      14.749   1.634  13.687  0.00  0.00    +0.150 HD
BRANCH  50  52
ATOM     52  CA  ASP A   7      16.824   1.774  14.283  0.00  0.00    +0.148 C 
BRANCH  52  53
ATOM     53  C   ASP A   7      17.554   2.934  13.605  0.00  0.00    +0.227 C 
ATOM     54  O   ASP A   7      16.986   3.588  12.729  0.00  0.00    -0.286 OA
ENDBRANCH  52  53
BRANCH  52  55
ATOM     55  CB  ASP A   7      17.045   0.472  13.516  0.00  0.00    +0.142 C 
BRANCH  55  56
ATOM     56  CG  ASP A   7      18.405  -0.119  13.779  0.00  0.00    +0.367 C 
ATOM     57  OD2 ASP A   7      19.051   0.307  14.762  0.00  0.00    -0.246 OA
ATOM     58  OD1 ASP A   7      18.841  -0.993  13.006  0.00  0.00    -0.246 OA
ENDBRANCH  55  56
ENDBRANCH  52  55
ENDBRANCH  50  52
ENDBRANCH  47  48
BRANCH  47  59
ATOM     59  CB  TYR A   6      12.940   3.939  16.326  0.00  0.00    +0.055 C 
BRANCH  59  60
ATOM     60  CG  TYR A   6      11.782   4.885  16.122  0.00  0.00    -0.020 A 
ATOM     61  CD2 TYR A   6      11.502   5.896  17.036  0.00  0.00    -0.001 A 
ATOM     62  CE2 TYR A   6      10.427   6.753  16.840  0.00  0.00    +0.036 A 
ATOM     63  CZ  TYR A   6       9.624   6.600  15.713  0.00  0.00    +0.134 A 
ATOM     64  CE1 TYR A   6       9.886   5.607  14.796  0.00  0.00    +0.036 A 
ATOM     65  CD1 TYR A   6      10.957   4.760  15.003  0.00  0.00    -0.001 A 
BRANCH  63  66
ATOM     66  OH  TYR A   6       8.555   7.439  15.494  0.00  0.00    -0.506 OA
ATOM     67  HH  TYR A   6       8.103   7.183  14.651  0.00  0.00    +0.292 HD
ENDBRANCH  63  66
ENDBRANCH  59  60
ENDBRANCH  47  59
ENDBRANCH  45  47
ENDBRANCH  42  43
BRANCH  42  68
ATOM     68  CB  THR A   5      12.743  -0.942  13.948  0.00  0.00    +0.137 C 
ATOM     69  CG2 THR A   5      12.008  -2.204  13.507  0.00  0.00    +0.034 C 
BRANCH  68  70
ATOM     70  OG1 THR A   5      13.596  -0.500  12.879  0.00  0.00    -0.382 OA
ATOM     71  HG1 THR A   5      14.243  -1.216  12.657  0.00  0.00    +0.210 HD
ENDBRANCH  68  70
ENDBRANCH  42  68
ENDBRANCH  40  42
ENDBRANCH   1  38
BRANCH   1  72
ATOM     72  CB  GLU A   4       9.617  -0.033  10.302  0.00  0.00    +0.041 C 
BRANCH  72  73
ATOM     73  CG  GLU A   4       9.223   0.414   8.904  0.00  0.00    +0.116 C 
BRANCH  73  74
ATOM     74  CD  GLU A   4       7.812  -0.009   8.530  0.00  0.00    +0.365 C 
ATOM     75  OE2 GLU A   4       7.204  -0.822   9.268  0.00  0.00    -0.246 OA
ATOM     76  OE1 GLU A   4       7.315   0.469   7.489  0.00  0.00    -0.246 OA
ENDBRANCH  73  74
ENDBRANCH  72  73
ENDBRANCH   1  72
TORSDOF 33
REMARK  Name = ../refined-set-2016/1lpg/1lpg_pocket.pdb
REMARK  230 active torsions:
REMARK  status: ('A' for Active; 'I' for Inactive)
REMARK    1  A    between atoms: _1  and  _5
REMARK    2  A    between atoms: _5  and  _6
REMARK    3  A    between atoms: _5  and  _8
REMARK    4  A    between atoms: _8  and  _9
REMARK    5  A    between atoms: _12  and  _14
REMARK    6  A    between atoms: _14  and  _15
REMARK    7  A    between atoms: _14  and  _17
REMARK    8  A    between atoms: _20  and  _22
REMARK    9  A    between atoms: _22  and  _23
REMARK   10  A    between atoms: _22  and  _25
REMARK   11  A    between atoms: _25  and  _26
REMARK   12  A    between atoms: _31  and  _33
REMARK   13  A    between atoms: _33  and  _34
REMARK   14  A    between atoms: _33  and  _36
REMARK   15  A    between atoms: _36  and  _37
REMARK   16  A    between atoms: _37  and  _38
REMARK   17  A    between atoms: _43  and  _45
REMARK   18  A    between atoms: _45  and  _46
REMARK   19  A    between atoms: _45  and  _48
REMARK   20  A    between atoms: _48  and  _49
REMARK   21  A    between atoms: _55  and  _57
REMARK   22  A    between atoms: _57  and  _58
REMARK   23  A    between atoms: _57  and  _60
REMARK   24  A    between atoms: _60  and  _61
REMARK   25  A    between atoms: _64  and  _66
REMARK   26  A    between atoms: _66  and  _67
REMARK   27  A    between atoms: _66  and  _69
REMARK   28  A    between atoms: _69  and  _70
REMARK   29  A    between atoms: _70  and  _71
REMARK   30  A    between atoms: _71  and  _72
REMARK   31  A    between atoms: _72  and  _73
REMARK   32  A    between atoms: _77  and  _79
REMARK   33  A    between atoms: _79  and  _80
REMARK   34  A    between atoms: _79  and  _82
REMARK   35  A    between atoms: _82  and  _83
REMARK   36  A    between atoms: _83  and  _84
REMARK   37  A    between atoms: _87  and  _89
REMARK   38  A    between atoms: _89  and  _90
REMARK   39  A    between atoms: _89  and  _92
REMARK   40  A    between atoms: _92  and  _93
REMARK   41  A    between atoms: _96  and  _98
REMARK   42  A    between atoms: _98  and  _99
REMARK   43  A    between atoms: _98  and  _101
REMARK   44  A    between atoms: _101  and  _102
REMARK   45  A    between atoms: _107  and  _108
REMARK   46  A    between atoms: _110  and  _112
REMARK   47  A    between atoms: _112  and  _113
REMARK   48  A    between atoms: _112  and  _115
REMARK   49  A    between atoms: _115  and  _116
REMARK   50  A    between atoms: _119  and  _121
REMARK   51  A    between atoms: _121  and  _122
REMARK   52  A    between atoms: _121  and  _124
REMARK   53  A    between atoms: _124  and  _125
REMARK   54  A    between atoms: _128  and  _130
REMARK   55  A    between atoms: _130  and  _131
REMARK   56  A    between atoms: _130  and  _133
REMARK   57  A    between atoms: _136  and  _138
REMARK   58  A    between atoms: _138  and  _139
REMARK   59  A    between atoms: _141  and  _143
REMARK   60  A    between atoms: _143  and  _144
REMARK   61  A    between atoms: _143  and  _146
REMARK   62  A    between atoms: _146  and  _147
REMARK   63  A    between atoms: _147  and  _148
REMARK   64  A    between atoms: _148  and  _149
REMARK   65  A    between atoms: _158  and  _160
REMARK   66  A    between atoms: _160  and  _161
REMARK   67  A    between atoms: _160  and  _163
REMARK   68  A    between atoms: _163  and  _164
REMARK   69  A    between atoms: _167  and  _169
REMARK   70  A    between atoms: _169  and  _170
REMARK   71  A    between atoms: _169  and  _172
REMARK   72  A    between atoms: _172  and  _173
REMARK   73  A    between atoms: _178  and  _180
REMARK   74  A    between atoms: _180  and  _181
REMARK   75  A    between atoms: _180  and  _183
REMARK   76  A    between atoms: _183  and  _184
REMARK   77  A    between atoms: _184  and  _185
REMARK   78  A    between atoms: _188  and  _190
REMARK   79  A    between atoms: _190  and  _191
REMARK   80  A    between atoms: _190  and  _193
REMARK   81  A    between atoms: _193  and  _194
REMARK   82  A    between atoms: _194  and  _195
REMARK   83  A    between atoms: _195  and  _196
REMARK   84  A    between atoms: _196  and  _197
REMARK   85  A    between atoms: _201  and  _203
REMARK   86  A    between atoms: _203  and  _204
REMARK   87  A    between atoms: _206  and  _208
REMARK   88  A    between atoms: _208  and  _209
REMARK   89  A    between atoms: _208  and  _211
REMARK   90  A    between atoms: _211  and  _212
REMARK   91  A    between atoms: _212  and  _213
REMARK   92  A    between atoms: _213  and  _214
REMARK   93  A    between atoms: _223  and  _225
REMARK   94  A    between atoms: _225  and  _226
REMARK   95  A    between atoms: _225  and  _228
REMARK   96  A    between atoms: _228  and  _229
REMARK   97  A    between atoms: _229  and  _230
REMARK   98  A    between atoms: _235  and  _237
REMARK   99  A    between atoms: _237  and  _238
REMARK  100  A    between atoms: _237  and  _240
REMARK  101  A    between atoms: _240  and  _241
REMARK  102  A    between atoms: _244  and  _246
REMARK  103  A    between atoms: _246  and  _247
REMARK  104  A    between atoms: _246  and  _249
REMARK  105  A    between atoms: _252  and  _254
REMARK  106  A    between atoms: _254  and  _255
REMARK  107  A    between atoms: _254  and  _257
REMARK  108  A    between atoms: _257  and  _258
REMARK  109  A    between atoms: _260  and  _262
REMARK  110  A    between atoms: _262  and  _263
REMARK  111  A    between atoms: _262  and  _265
REMARK  112  A    between atoms: _265  and  _266
REMARK  113  A    between atoms: _268  and  _270
REMARK  114  A    between atoms: _270  and  _271
REMARK  115  A    between atoms: _270  and  _273
REMARK  116  A    between atoms: _273  and  _274
REMARK  117  A    between atoms: _280  and  _282
REMARK  118  A    between atoms: _282  and  _283
REMARK  119  A    between atoms: _282  and  _285
REMARK  120  A    between atoms: _285  and  _286
REMARK  121  A    between atoms: _289  and  _291
REMARK  122  A    between atoms: _291  and  _292
REMARK  123  A    between atoms: _291  and  _294
REMARK  124  A    between atoms: _294  and  _295
REMARK  125  A    between atoms: _298  and  _300
REMARK  126  A    between atoms: _300  and  _301
REMARK  127  A    between atoms: _300  and  _303
REMARK  128  A    between atoms: _303  and  _304
REMARK  129  A    between atoms: _307  and  _309
REMARK  130  A    between atoms: _309  and  _310
REMARK  131  A    between atoms: _309  and  _312
REMARK  132  A    between atoms: _312  and  _313
REMARK  133  A    between atoms: _313  and  _314
REMARK  134  A    between atoms: _316  and  _318
REMARK  135  A    between atoms: _318  and  _319
REMARK  136  A    between atoms: _318  and  _321
REMARK  137  A    between atoms: _323  and  _325
REMARK  138  A    between atoms: _325  and  _326
REMARK  139  A    between atoms: _329  and  _331
REMARK  140  A    between atoms: _331  and  _332
REMARK  141  A    between atoms: _334  and  _336
REMARK  142  A    between atoms: _336  and  _337
REMARK  143  A    between atoms: _336  and  _339
REMARK  144  A    between atoms: _339  and  _340
REMARK  145  A    between atoms: _340  and  _341
REMARK  146  A    between atoms: _344  and  _346
REMARK  147  A    between atoms: _346  and  _347
REMARK  148  A    between atoms: _346  and  _349
REMARK  149  A    between atoms: _349  and  _350
REMARK  150  A    between atoms: _353  and  _355
REMARK  151  A    between atoms: _355  and  _356
REMARK  152  A    between atoms: _359  and  _361
REMARK  153  A    between atoms: _361  and  _362
REMARK  154  A    between atoms: _361  and  _364
REMARK  155  A    between atoms: _364  and  _365
REMARK  156  A    between atoms: _365  and  _468
REMARK  157  A    between atoms: _366  and  _368
REMARK  158  A    between atoms: _368  and  _369
REMARK  159  A    between atoms: _368  and  _371
REMARK  160  A    between atoms: _371  and  _372
REMARK  161  A    between atoms: _372  and  _373
REMARK  162  A    between atoms: _378  and  _380
REMARK  163  A    between atoms: _380  and  _381
REMARK  164  A    between atoms: _383  and  _385
REMARK  165  A    between atoms: _385  and  _386
REMARK  166  A    between atoms: _385  and  _388
REMARK  167  A    between atoms: _388  and  _389
REMARK  168  A    between atoms: _392  and  _394
REMARK  169  A    between atoms: _394  and  _395
REMARK  170  A    between atoms: _394  and  _397
REMARK  171  A    between atoms: _397  and  _398
REMARK  172  A    between atoms: _400  and  _402
REMARK  173  A    between atoms: _402  and  _403
REMARK  174  A    between atoms: _405  and  _407
REMARK  175  A    between atoms: _407  and  _408
REMARK  176  A    between atoms: _410  and  _412
REMARK  177  A    between atoms: _412  and  _413
REMARK  178  A    between atoms: _412  and  _415
REMARK  179  A    between atoms: _418  and  _420
REMARK  180  A    between atoms: _420  and  _421
REMARK  181  A    between atoms: _420  and  _423
REMARK  182  A    between atoms: _423  and  _424
REMARK  183  A    between atoms: _426  and  _428
REMARK  184  A    between atoms: _428  and  _429
REMARK  185  A    between atoms: _428  and  _431
REMARK  186  A    between atoms: _431  and  _432
REMARK  187  A    between atoms: _442  and  _444
REMARK  188  A    between atoms: _444  and  _445
REMARK  189  A    between atoms: _447  and  _449
REMARK  190  A    between atoms: _449  and  _450
REMARK  191  A    between atoms: _449  and  _452
REMARK  192  A    between atoms: _452  and  _453
REMARK  193  A    between atoms: _453  and  _454
REMARK  194  A    between atoms: _457  and  _459
REMARK  195  A    between atoms: _459  and  _460
REMARK  196  A    between atoms: _462  and  _464
REMARK  197  A    between atoms: _464  and  _465
REMARK  198  A    between atoms: _464  and  _467
REMARK  199  A    between atoms: _467  and  _468
REMARK  200  A    between atoms: _469  and  _471
REMARK  201  A    between atoms: _471  and  _472
REMARK  202  A    between atoms: _475  and  _477
REMARK  203  A    between atoms: _477  and  _478
REMARK  204  A    between atoms: _477  and  _480
REMARK  205  A    between atoms: _480  and  _481
REMARK  206  A    between atoms: _481  and  _482
REMARK  207  A    between atoms: _482  and  _483
REMARK  208  A    between atoms: _492  and  _494
REMARK  209  A    between atoms: _494  and  _495
REMARK  210  A    between atoms: _494  and  _497
REMARK  211  A    between atoms: _497  and  _498
REMARK  212  A    between atoms: _498  and  _499
REMARK  213  A    between atoms: _499  and  _500
REMARK  214  A    between atoms: _500  and  _501
REMARK  215  A    between atoms: _505  and  _507
REMARK  216  A    between atoms: _507  and  _508
REMARK  217  A    between atoms: _507  and  _510
REMARK  218  A    between atoms: _510  and  _511
REMARK  219  A    between atoms: _516  and  _517
REMARK  220  A    between atoms: _519  and  _521
REMARK  221  A    between atoms: _521  and  _522
REMARK  222  A    between atoms: _524  and  _526
REMARK  223  A    between atoms: _526  and  _527
REMARK  224  A    between atoms: _526  and  _529
REMARK  225  A    between atoms: _529  and  _530
REMARK  226  A    between atoms: _533  and  _535
REMARK  227  A    between atoms: _535  and  _536
REMARK  228  A    between atoms: _535  and  _538
REMARK  229  A    between atoms: _538  and  _539
REMARK  230  A    between atoms: _544  and  _545
REMARK                            x       y       z     vdW  Elec       q    Type
REMARK                         _______ _______ _______ _____ _____    ______ ____
ROOT
ATOM      1  CA  ASP A   1      17.575   7.058  15.190  0.00  0.00    +0.144 C 
ENDROOT
BRANCH   1   2
ATOM      2  N   ASP A   1      18.289   5.828  14.846  0.00  0.00    -0.239 NA
ATOM      3  H   ASP A   1      18.345   5.067  15.552  0.00  0.00    +0.142 HD
ENDBRANCH   1   2
BRANCH   1   4
ATOM      4  C   ASP A   1      18.559   8.160  15.615  0.00  0.00    +0.225 C 
ATOM      5  O   ASP A   1      18.610   8.544  16.773  0.00  0.00    -0.287 OA
ENDBRANCH   1   4
BRANCH   1   6
ATOM      6  CB  ASP A   1      16.565   6.777  16.306  0.00  0.00    +0.139 C 
BRANCH   6   7
ATOM      7  CG  ASP A   1      15.525   7.867  16.442  0.00  0.00    +0.367 C 
ATOM      8  OD2 ASP A   1      14.758   7.828  17.426  0.00  0.00    -0.246 OA
ATOM      9  OD1 ASP A   1      15.471   8.761  15.572  0.00  0.00    -0.246 OA
ENDBRANCH   6   7
ENDBRANCH   1   6
TORSDOF 4
REMARK  Name = ../refined-set-2016/1lpg/1lpg_pocket.pdb
REMARK  230 active torsions:
REMARK  status: ('A' for Active; 'I' for Inactive)
REMARK    1  A    between atoms: _1  and  _5
REMARK    2  A    between atoms: _5  and  _6
REMARK    3  A    between atoms: _5  and  _8
REMARK    4  A    between atoms: _8  and  _9
REMARK    5  A    between atoms: _12  and  _14
REMARK    6  A    between atoms: _14  and  _15
REMARK    7  A    between atoms: _14  and  _17
REMARK    8  A    between atoms: _20  and  _22
REMARK    9  A    between atoms: _22  and  _23
REMARK   10  A    between atoms: _22  and  _25
REMARK   11  A    between atoms: _25  and  _26
REMARK   12  A    between atoms: _31  and  _33
REMARK   13  A    between atoms: _33  and  _34
REMARK   14  A    between atoms: _33  and  _36
REMARK   15  A    between atoms: _36  and  _37
REMARK   16  A    between atoms: _37  and  _38
REMARK   17  A    between atoms: _43  and  _45
REMARK   18  A    between atoms: _45  and  _46
REMARK   19  A    between atoms: _45  and  _48
REMARK   20  A    between atoms: _48  and  _49
REMARK   21  A    between atoms: _55  and  _57
REMARK   22  A    between atoms: _57  and  _58
REMARK   23  A    between atoms: _57  and  _60
REMARK   24  A    between atoms: _60  and  _61
REMARK   25  A    between atoms: _64  and  _66
REMARK   26  A    between atoms: _66  and  _67
REMARK   27  A    between atoms: _66  and  _69
REMARK   28  A    between atoms: _69  and  _70
REMARK   29  A    between atoms: _70  and  _71
REMARK   30  A    between atoms: _71  and  _72
REMARK   31  A    between atoms: _72  and  _73
REMARK   32  A    between atoms: _77  and  _79
REMARK   33  A    between atoms: _79  and  _80
REMARK   34  A    between atoms: _79  and  _82
REMARK   35  A    between atoms: _82  and  _83
REMARK   36  A    between atoms: _83  and  _84
REMARK   37  A    between atoms: _87  and  _89
REMARK   38  A    between atoms: _89  and  _90
REMARK   39  A    between atoms: _89  and  _92
REMARK   40  A    between atoms: _92  and  _93
REMARK   41  A    between atoms: _96  and  _98
REMARK   42  A    between atoms: _98  and  _99
REMARK   43  A    between atoms: _98  and  _101
REMARK   44  A    between atoms: _101  and  _102
REMARK   45  A    between atoms: _107  and  _108
REMARK   46  A    between atoms: _110  and  _112
REMARK   47  A    between atoms: _112  and  _113
REMARK   48  A    between atoms: _112  and  _115
REMARK   49  A    between atoms: _115  and  _116
REMARK   50  A    between atoms: _119  and  _121
REMARK   51  A    between atoms: _121  and  _122
REMARK   52  A    between atoms: _121  and  _124
REMARK   53  A    between atoms: _124  and  _125
REMARK   54  A    between atoms: _128  and  _130
REMARK   55  A    between atoms: _130  and  _131
REMARK   56  A    between atoms: _130  and  _133
REMARK   57  A    between atoms: _136  and  _138
REMARK   58  A    between atoms: _138  and  _139
REMARK   59  A    between atoms: _141  and  _143
REMARK   60  A    between atoms: _143  and  _144
REMARK   61  A    between atoms: _143  and  _146
REMARK   62  A    between atoms: _146  and  _147
REMARK   63  A    between atoms: _147  and  _148
REMARK   64  A    between atoms: _148  and  _149
REMARK   65  A    between atoms: _158  and  _160
REMARK   66  A    between atoms: _160  and  _161
REMARK   67  A    between atoms: _160  and  _163
REMARK   68  A    between atoms: _163  and  _164
REMARK   69  A    between atoms: _167  and  _169
REMARK   70  A    between atoms: _169  and  _170
REMARK   71  A    between atoms: _169  and  _172
REMARK   72  A    between atoms: _172  and  _173
REMARK   73  A    between atoms: _178  and  _180
REMARK   74  A    between atoms: _180  and  _181
REMARK   75  A    between atoms: _180  and  _183
REMARK   76  A    between atoms: _183  and  _184
REMARK   77  A    between atoms: _184  and  _185
REMARK   78  A    between atoms: _188  and  _190
REMARK   79  A    between atoms: _190  and  _191
REMARK   80  A    between atoms: _190  and  _193
REMARK   81  A    between atoms: _193  and  _194
REMARK   82  A    between atoms: _194  and  _195
REMARK   83  A    between atoms: _195  and  _196
REMARK   84  A    between atoms: _196  and  _197
REMARK   85  A    between atoms: _201  and  _203
REMARK   86  A    between atoms: _203  and  _204
REMARK   87  A    between atoms: _206  and  _208
REMARK   88  A    between atoms: _208  and  _209
REMARK   89  A    between atoms: _208  and  _211
REMARK   90  A    between atoms: _211  and  _212
REMARK   91  A    between atoms: _212  and  _213
REMARK   92  A    between atoms: _213  and  _214
REMARK   93  A    between atoms: _223  and  _225
REMARK   94  A    between atoms: _225  and  _226
REMARK   95  A    between atoms: _225  and  _228
REMARK   96  A    between atoms: _228  and  _229
REMARK   97  A    between atoms: _229  and  _230
REMARK   98  A    between atoms: _235  and  _237
REMARK   99  A    between atoms: _237  and  _238
REMARK  100  A    between atoms: _237  and  _240
REMARK  101  A    between atoms: _240  and  _241
REMARK  102  A    between atoms: _244  and  _246
REMARK  103  A    between atoms: _246  and  _247
REMARK  104  A    between atoms: _246  and  _249
REMARK  105  A    between atoms: _252  and  _254
REMARK  106  A    between atoms: _254  and  _255
REMARK  107  A    between atoms: _254  and  _257
REMARK  108  A    between atoms: _257  and  _258
REMARK  109  A    between atoms: _260  and  _262
REMARK  110  A    between atoms: _262  and  _263
REMARK  111  A    between atoms: _262  and  _265
REMARK  112  A    between atoms: _265  and  _266
REMARK  113  A    between atoms: _268  and  _270
REMARK  114  A    between atoms: _270  and  _271
REMARK  115  A    between atoms: _270  and  _273
REMARK  116  A    between atoms: _273  and  _274
REMARK  117  A    between atoms: _280  and  _282
REMARK  118  A    between atoms: _282  and  _283
REMARK  119  A    between atoms: _282  and  _285
REMARK  120  A    between atoms: _285  and  _286
REMARK  121  A    between atoms: _289  and  _291
REMARK  122  A    between atoms: _291  and  _292
REMARK  123  A    between atoms: _291  and  _294
REMARK  124  A    between atoms: _294  and  _295
REMARK  125  A    between atoms: _298  and  _300
REMARK  126  A    between atoms: _300  and  _301
REMARK  127  A    between atoms: _300  and  _303
REMARK  128  A    between atoms: _303  and  _304
REMARK  129  A    between atoms: _307  and  _309
REMARK  130  A    between atoms: _309  and  _310
REMARK  131  A    between atoms: _309  and  _312
REMARK  132  A    between atoms: _312  and  _313
REMARK  133  A    between atoms: _313  and  _314
REMARK  134  A    between atoms: _316  and  _318
REMARK  135  A    between atoms: _318  and  _319
REMARK  136  A    between atoms: _318  and  _321
REMARK  137  A    between atoms: _323  and  _325
REMARK  138  A    between atoms: _325  and  _326
REMARK  139  A    between atoms: _329  and  _331
REMARK  140  A    between atoms: _331  and  _332
REMARK  141  A    between atoms: _334  and  _336
REMARK  142  A    between atoms: _336  and  _337
REMARK  143  A    between atoms: _336  and  _339
REMARK  144  A    between atoms: _339  and  _340
REMARK  145  A    between atoms: _340  and  _341
REMARK  146  A    between atoms: _344  and  _346
REMARK  147  A    between atoms: _346  and  _347
REMARK  148  A    between atoms: _346  and  _349
REMARK  149  A    between atoms: _349  and  _350
REMARK  150  A    between atoms: _353  and  _355
REMARK  151  A    between atoms: _355  and  _356
REMARK  152  A    between atoms: _359  and  _361
REMARK  153  A    between atoms: _361  and  _362
REMARK  154  A    between atoms: _361  and  _364
REMARK  155  A    between atoms: _364  and  _365
REMARK  156  A    between atoms: _365  and  _468
REMARK  157  A    between atoms: _366  and  _368
REMARK  158  A    between atoms: _368  and  _369
REMARK  159  A    between atoms: _368  and  _371
REMARK  160  A    between atoms: _371  and  _372
REMARK  161  A    between atoms: _372  and  _373
REMARK  162  A    between atoms: _378  and  _380
REMARK  163  A    between atoms: _380  and  _381
REMARK  164  A    between atoms: _383  and  _385
REMARK  165  A    between atoms: _385  and  _386
REMARK  166  A    between atoms: _385  and  _388
REMARK  167  A    between atoms: _388  and  _389
REMARK  168  A    between atoms: _392  and  _394
REMARK  169  A    between atoms: _394  and  _395
REMARK  170  A    between atoms: _394  and  _397
REMARK  171  A    between atoms: _397  and  _398
REMARK  172  A    between atoms: _400  and  _402
REMARK  173  A    between atoms: _402  and  _403
REMARK  174  A    between atoms: _405  and  _407
REMARK  175  A    between atoms: _407  and  _408
REMARK  176  A    between atoms: _410  and  _412
REMARK  177  A    between atoms: _412  and  _413
REMARK  178  A    between atoms: _412  and  _415
REMARK  179  A    between atoms: _418  and  _420
REMARK  180  A    between atoms: _420  and  _421
REMARK  181  A    between atoms: _420  and  _423
REMARK  182  A    between atoms: _423  and  _424
REMARK  183  A    between atoms: _426  and  _428
REMARK  184  A    between atoms: _428  and  _429
REMARK  185  A    between atoms: _428  and  _431
REMARK  186  A    between atoms: _431  and  _432
REMARK  187  A    between atoms: _442  and  _444
REMARK  188  A    between atoms: _444  and  _445
REMARK  189  A    between atoms: _447  and  _449
REMARK  190  A    between atoms: _449  and  _450
REMARK  191  A    between atoms: _449  and  _452
REMARK  192  A    between atoms: _452  and  _453
REMARK  193  A    between atoms: _453  and  _454
REMARK  194  A    between atoms: _457  and  _459
REMARK  195  A    between atoms: _459  and  _460
REMARK  196  A    between atoms: _462  and  _464
REMARK  197  A    between atoms: _464  and  _465
REMARK  198  A    between atoms: _464  and  _467
REMARK  199  A    between atoms: _467  and  _468
REMARK  200  A    between atoms: _469  and  _471
REMARK  201  A    between atoms: _471  and  _472
REMARK  202  A    between atoms: _475  and  _477
REMARK  203  A    between atoms: _477  and  _478
REMARK  204  A    between atoms: _477  and  _480
REMARK  205  A    between atoms: _480  and  _481
REMARK  206  A    between atoms: _481  and  _482
REMARK  207  A    between atoms: _482  and  _483
REMARK  208  A    between atoms: _492  and  _494
REMARK  209  A    between atoms: _494  and  _495
REMARK  210  A    between atoms: _494  and  _497
REMARK  211  A    between atoms: _497  and  _498
REMARK  212  A    between atoms: _498  and  _499
REMARK  213  A    between atoms: _499  and  _500
REMARK  214  A    between atoms: _500  and  _501
REMARK  215  A    between atoms: _505  and  _507
REMARK  216  A    between atoms: _507  and  _508
REMARK  217  A    between atoms: _507  and  _510
REMARK  218  A    between atoms: _510  and  _511
REMARK  219  A    between atoms: _516  and  _517
REMARK  220  A    between atoms: _519  and  _521
REMARK  221  A    between atoms: _521  and  _522
REMARK  222  A    between atoms: _524  and  _526
REMARK  223  A    between atoms: _526  and  _527
REMARK  224  A    between atoms: _526  and  _529
REMARK  225  A    between atoms: _529  and  _530
REMARK  226  A    between atoms: _533  and  _535
REMARK  227  A    between atoms: _535  and  _536
REMARK  228  A    between atoms: _535  and  _538
REMARK  229  A    between atoms: _538  and  _539
REMARK  230  A    between atoms: _544  and  _545
REMARK                            x       y       z     vdW  Elec       q    Type
REMARK                         _______ _______ _______ _____ _____    ______ ____
ROOT
ATOM      1  CA  VAL A   1      18.406  12.417  30.780  0.00  0.00    +0.133 C 
ENDROOT
BRANCH   1   2
ATOM      2  CB  VAL A   1      17.362  11.309  30.389  0.00  0.00    +0.023 C 
ATOM      3  CG2 VAL A   1      16.384  11.000  31.528  0.00  0.00    +0.002 C 
ATOM      4  CG1 VAL A   1      16.602  11.706  29.151  0.00  0.00    +0.002 C 
ENDBRANCH   1   2
BRANCH   1   5
ATOM      5  N   VAL A   1      19.235  12.038  31.912  0.00  0.00    -0.239 NA
ATOM      6  H   VAL A   1      18.780  11.755  32.803  0.00  0.00    +0.142 HD
ENDBRANCH   1   5
BRANCH   1   7
ATOM      7  C   VAL A   1      17.755  13.749  31.153  0.00  0.00    +0.224 C 
ATOM      8  O   VAL A   1      17.569  14.032  32.335  0.00  0.00    -0.287 OA
ENDBRANCH   1   7
TORSDOF 3
REMARK  Name = ../refined-set-2016/1lpg/1lpg_pocket.pdb
REMARK  230 active torsions:
REMARK  status: ('A' for Active; 'I' for Inactive)
REMARK    1  A    between atoms: _1  and  _5
REMARK    2  A    between atoms: _5  and  _6
REMARK    3  A    between atoms: _5  and  _8
REMARK    4  A    between atoms: _8  and  _9
REMARK    5  A    between atoms: _12  and  _14
REMARK    6  A    between atoms: _14  and  _15
REMARK    7  A    between atoms: _14  and  _17
REMARK    8  A    between atoms: _20  and  _22
REMARK    9  A    between atoms: _22  and  _23
REMARK   10  A    between atoms: _22  and  _25
REMARK   11  A    between atoms: _25  and  _26
REMARK   12  A    between atoms: _31  and  _33
REMARK   13  A    between atoms: _33  and  _34
REMARK   14  A    between atoms: _33  and  _36
REMARK   15  A    between atoms: _36  and  _37
REMARK   16  A    between atoms: _37  and  _38
REMARK   17  A    between atoms: _43  and  _45
REMARK   18  A    between atoms: _45  and  _46
REMARK   19  A    between atoms: _45  and  _48
REMARK   20  A    between atoms: _48  and  _49
REMARK   21  A    between atoms: _55  and  _57
REMARK   22  A    between atoms: _57  and  _58
REMARK   23  A    between atoms: _57  and  _60
REMARK   24  A    between atoms: _60  and  _61
REMARK   25  A    between atoms: _64  and  _66
REMARK   26  A    between atoms: _66  and  _67
REMARK   27  A    between atoms: _66  and  _69
REMARK   28  A    between atoms: _69  and  _70
REMARK   29  A    between atoms: _70  and  _71
REMARK   30  A    between atoms: _71  and  _72
REMARK   31  A    between atoms: _72  and  _73
REMARK   32  A    between atoms: _77  and  _79
REMARK   33  A    between atoms: _79  and  _80
REMARK   34  A    between atoms: _79  and  _82
REMARK   35  A    between atoms: _82  and  _83
REMARK   36  A    between atoms: _83  and  _84
REMARK   37  A    between atoms: _87  and  _89
REMARK   38  A    between atoms: _89  and  _90
REMARK   39  A    between atoms: _89  and  _92
REMARK   40  A    between atoms: _92  and  _93
REMARK   41  A    between atoms: _96  and  _98
REMARK   42  A    between atoms: _98  and  _99
REMARK   43  A    between atoms: _98  and  _101
REMARK   44  A    between atoms: _101  and  _102
REMARK   45  A    between atoms: _107  and  _108
REMARK   46  A    between atoms: _110  and  _112
REMARK   47  A    between atoms: _112  and  _113
REMARK   48  A    between atoms: _112  and  _115
REMARK   49  A    between atoms: _115  and  _116
REMARK   50  A    between atoms: _119  and  _121
REMARK   51  A    between atoms: _121  and  _122
REMARK   52  A    between atoms: _121  and  _124
REMARK   53  A    between atoms: _124  and  _125
REMARK   54  A    between atoms: _128  and  _130
REMARK   55  A    between atoms: _130  and  _131
REMARK   56  A    between atoms: _130  and  _133
REMARK   57  A    between atoms: _136  and  _138
REMARK   58  A    between atoms: _138  and  _139
REMARK   59  A    between atoms: _141  and  _143
REMARK   60  A    between atoms: _143  and  _144
REMARK   61  A    between atoms: _143  and  _146
REMARK   62  A    between atoms: _146  and  _147
REMARK   63  A    between atoms: _147  and  _148
REMARK   64  A    between atoms: _148  and  _149
REMARK   65  A    between atoms: _158  and  _160
REMARK   66  A    between atoms: _160  and  _161
REMARK   67  A    between atoms: _160  and  _163
REMARK   68  A    between atoms: _163  and  _164
REMARK   69  A    between atoms: _167  and  _169
REMARK   70  A    between atoms: _169  and  _170
REMARK   71  A    between atoms: _169  and  _172
REMARK   72  A    between atoms: _172  and  _173
REMARK   73  A    between atoms: _178  and  _180
REMARK   74  A    between atoms: _180  and  _181
REMARK   75  A    between atoms: _180  and  _183
REMARK   76  A    between atoms: _183  and  _184
REMARK   77  A    between atoms: _184  and  _185
REMARK   78  A    between atoms: _188  and  _190
REMARK   79  A    between atoms: _190  and  _191
REMARK   80  A    between atoms: _190  and  _193
REMARK   81  A    between atoms: _193  and  _194
REMARK   82  A    between atoms: _194  and  _195
REMARK   83  A    between atoms: _195  and  _196
REMARK   84  A    between atoms: _196  and  _197
REMARK   85  A    between atoms: _201  and  _203
REMARK   86  A    between atoms: _203  and  _204
REMARK   87  A    between atoms: _206  and  _208
REMARK   88  A    between atoms: _208  and  _209
REMARK   89  A    between atoms: _208  and  _211
REMARK   90  A    between atoms: _211  and  _212
REMARK   91  A    between atoms: _212  and  _213
REMARK   92  A    between atoms: _213  and  _214
REMARK   93  A    between atoms: _223  and  _225
REMARK   94  A    between atoms: _225  and  _226
REMARK   95  A    between atoms: _225  and  _228
REMARK   96  A    between atoms: _228  and  _229
REMARK   97  A    between atoms: _229  and  _230
REMARK   98  A    between atoms: _235  and  _237
REMARK   99  A    between atoms: _237  and  _238
REMARK  100  A    between atoms: _237  and  _240
REMARK  101  A    between atoms: _240  and  _241
REMARK  102  A    between atoms: _244  and  _246
REMARK  103  A    between atoms: _246  and  _247
REMARK  104  A    between atoms: _246  and  _249
REMARK  105  A    between atoms: _252  and  _254
REMARK  106  A    between atoms: _254  and  _255
REMARK  107  A    between atoms: _254  and  _257
REMARK  108  A    between atoms: _257  and  _258
REMARK  109  A    between atoms: _260  and  _262
REMARK  110  A    between atoms: _262  and  _263
REMARK  111  A    between atoms: _262  and  _265
REMARK  112  A    between atoms: _265  and  _266
REMARK  113  A    between atoms: _268  and  _270
REMARK  114  A    between atoms: _270  and  _271
REMARK  115  A    between atoms: _270  and  _273
REMARK  116  A    between atoms: _273  and  _274
REMARK  117  A    between atoms: _280  and  _282
REMARK  118  A    between atoms: _282  and  _283
REMARK  119  A    between atoms: _282  and  _285
REMARK  120  A    between atoms: _285  and  _286
REMARK  121  A    between atoms: _289  and  _291
REMARK  122  A    between atoms: _291  and  _292
REMARK  123  A    between atoms: _291  and  _294
REMARK  124  A    between atoms: _294  and  _295
REMARK  125  A    between atoms: _298  and  _300
REMARK  126  A    between atoms: _300  and  _301
REMARK  127  A    between atoms: _300  and  _303
REMARK  128  A    between atoms: _303  and  _304
REMARK  129  A    between atoms: _307  and  _309
REMARK  130  A    between atoms: _309  and  _310
REMARK  131  A    between atoms: _309  and  _312
REMARK  132  A    between atoms: _312  and  _313
REMARK  133  A    between atoms: _313  and  _314
REMARK  134  A    between atoms: _316  and  _318
REMARK  135  A    between atoms: _318  and  _319
REMARK  136  A    between atoms: _318  and  _321
REMARK  137  A    between atoms: _323  and  _325
REMARK  138  A    between atoms: _325  and  _326
REMARK  139  A    between atoms: _329  and  _331
REMARK  140  A    between atoms: _331  and  _332
REMARK  141  A    between atoms: _334  and  _336
REMARK  142  A    between atoms: _336  and  _337
REMARK  143  A    between atoms: _336  and  _339
REMARK  144  A    between atoms: _339  and  _340
REMARK  145  A    between atoms: _340  and  _341
REMARK  146  A    between atoms: _344  and  _346
REMARK  147  A    between atoms: _346  and  _347
REMARK  148  A    between atoms: _346  and  _349
REMARK  149  A    between atoms: _349  and  _350
REMARK  150  A    between atoms: _353  and  _355
REMARK  151  A    between atoms: _355  and  _356
REMARK  152  A    between atoms: _359  and  _361
REMARK  153  A    between atoms: _361  and  _362
REMARK  154  A    between atoms: _361  and  _364
REMARK  155  A    between atoms: _364  and  _365
REMARK  156  A    between atoms: _365  and  _468
REMARK  157  A    between atoms: _366  and  _368
REMARK  158  A    between atoms: _368  and  _369
REMARK  159  A    between atoms: _368  and  _371
REMARK  160  A    between atoms: _371  and  _372
REMARK  161  A    between atoms: _372  and  _373
REMARK  162  A    between atoms: _378  and  _380
REMARK  163  A    between atoms: _380  and  _381
REMARK  164  A    between atoms: _383  and  _385
REMARK  165  A    between atoms: _385  and  _386
REMARK  166  A    between atoms: _385  and  _388
REMARK  167  A    between atoms: _388  and  _389
REMARK  168  A    between atoms: _392  and  _394
REMARK  169  A    between atoms: _394  and  _395
REMARK  170  A    between atoms: _394  and  _397
REMARK  171  A    between atoms: _397  and  _398
REMARK  172  A    between atoms: _400  and  _402
REMARK  173  A    between atoms: _402  and  _403
REMARK  174  A    between atoms: _405  and  _407
REMARK  175  A    between atoms: _407  and  _408
REMARK  176  A    between atoms: _410  and  _412
REMARK  177  A    between atoms: _412  and  _413
REMARK  178  A    between atoms: _412  and  _415
REMARK  179  A    between atoms: _418  and  _420
REMARK  180  A    between atoms: _420  and  _421
REMARK  181  A    between atoms: _420  and  _423
REMARK  182  A    between atoms: _423  and  _424
REMARK  183  A    between atoms: _426  and  _428
REMARK  184  A    between atoms: _428  and  _429
REMARK  185  A    between atoms: _428  and  _431
REMARK  186  A    between atoms: _431  and  _432
REMARK  187  A    between atoms: _442  and  _444
REMARK  188  A    between atoms: _444  and  _445
REMARK  189  A    between atoms: _447  and  _449
REMARK  190  A    between atoms: _449  and  _450
REMARK  191  A    between atoms: _449  and  _452
REMARK  192  A    between atoms: _452  and  _453
REMARK  193  A    between atoms: _453  and  _454
REMARK  194  A    between atoms: _457  and  _459
REMARK  195  A    between atoms: _459  and  _460
REMARK  196  A    between atoms: _462  and  _464
REMARK  197  A    between atoms: _464  and  _465
REMARK  198  A    between atoms: _464  and  _467
REMARK  199  A    between atoms: _467  and  _468
REMARK  200  A    between atoms: _469  and  _471
REMARK  201  A    between atoms: _471  and  _472
REMARK  202  A    between atoms: _475  and  _477
REMARK  203  A    between atoms: _477  and  _478
REMARK  204  A    between atoms: _477  and  _480
REMARK  205  A    between atoms: _480  and  _481
REMARK  206  A    between atoms: _481  and  _482
REMARK  207  A    between atoms: _482  and  _483
REMARK  208  A    between atoms: _492  and  _494
REMARK  209  A    between atoms: _494  and  _495
REMARK  210  A    between atoms: _494  and  _497
REMARK  211  A    between atoms: _497  and  _498
REMARK  212  A    between atoms: _498  and  _499
REMARK  213  A    between atoms: _499  and  _500
REMARK  214  A    between atoms: _500  and  _501
REMARK  215  A    between atoms: _505  and  _507
REMARK  216  A    between atoms: _507  and  _508
REMARK  217  A    between atoms: _507  and  _510
REMARK  218  A    between atoms: _510  and  _511
REMARK  219  A    between atoms: _516  and  _517
REMARK  220  A    between atoms: _519  and  _521
REMARK  221  A    between atoms: _521  and  _522
REMARK  222  A    between atoms: _524  and  _526
REMARK  223  A    between atoms: _526  and  _527
REMARK  224  A    between atoms: _526  and  _529
REMARK  225  A    between atoms: _529  and  _530
REMARK  226  A    between atoms: _533  and  _535
REMARK  227  A    between atoms: _535  and  _536
REMARK  228  A    between atoms: _535  and  _538
REMARK  229  A    between atoms: _538  and  _539
REMARK  230  A    between atoms: _544  and  _545
REMARK                            x       y       z     vdW  Elec       q    Type
REMARK                         _______ _______ _______ _____ _____    ______ ____
ROOT
ATOM      1  CA  GLU A   5       2.341   9.947  30.113  0.00  0.00    +0.149 C 
ENDROOT
BRANCH   1   2
ATOM      2  C   GLU A   5       1.212  10.716  29.435  0.00  0.00    +0.241 C 
ATOM      3  N   LYS A   6       0.197  11.079  30.212  0.00  0.00    -0.297 N 
ATOM      4  H   LYS A   6       0.214  10.825  31.220  0.00  0.00    +0.150 HD
ATOM      5  O   GLU A   5       1.234  10.924  28.229  0.00  0.00    -0.273 OA
BRANCH   3   6
ATOM      6  CA  LYS A   6      -0.946  11.828  29.683  0.00  0.00    +0.149 C 
BRANCH   6   7
ATOM      7  C   LYS A   6      -0.877  13.316  30.066  0.00  0.00    +0.241 C 
ATOM      8  N   GLY A   7       0.202  13.703  30.742  0.00  0.00    -0.295 N 
ATOM      9  H   GLY A   7       0.940  13.008  30.974  0.00  0.00    +0.150 HD
ATOM     10  O   LYS A   6      -1.772  14.098  29.734  0.00  0.00    -0.273 OA
BRANCH   8  11
ATOM     11  CA  GLY A   7       0.360  15.081  31.158  0.00  0.00    +0.176 C 
BRANCH  11  12
ATOM     12  C   GLY A   7       0.834  15.939  30.005  0.00  0.00    +0.243 C 
ATOM     13  N   ARG A   8       0.986  17.235  30.241  0.00  0.00    -0.297 N 
ATOM     14  H   ARG A   8       0.777  17.623  31.183  0.00  0.00    +0.150 HD
ATOM     15  O   GLY A   7       1.045  15.447  28.907  0.00  0.00    -0.273 OA
BRANCH  13  16
ATOM     16  CA  ARG A   8       1.446  18.109  29.178  0.00  0.00    +0.149 C 
BRANCH  16  17
ATOM     17  C   ARG A   8       2.923  18.392  29.312  0.00  0.00    +0.241 C 
ATOM     18  O   ARG A   8       3.564  17.976  30.279  0.00  0.00    -0.273 OA
ATOM     19  N   GLN A   9       3.444  19.094  28.315  0.00  0.00    -0.298 N 
ATOM     20  H   GLN A   9       2.811  19.398  27.548  0.00  0.00    +0.150 HD
BRANCH  19  21
ATOM     21  CA  GLN A   9       4.847  19.463  28.231  0.00  0.00    +0.137 C 
BRANCH  21  22
ATOM     22  C   GLN A   9       5.277  20.295  29.437  0.00  0.00    +0.227 C 
ATOM     23  O   GLN A   9       4.448  20.888  30.119  0.00  0.00    -0.286 OA
ENDBRANCH  21  22
BRANCH  21  24
ATOM     24  CB  GLN A   9       5.077  20.236  26.932  0.00  0.00    +0.037 C 
BRANCH  24  25
ATOM     25  CG  GLN A   9       6.478  20.144  26.365  0.00  0.00    +0.087 C 
BRANCH  25  26
ATOM     26  CD  GLN A   9       6.634  19.052  25.330  0.00  0.00    +0.219 C 
ATOM     27  OE1 GLN A   9       6.226  17.923  25.539  0.00  0.00    -0.275 OA
ATOM     28  NE2 GLN A   9       7.232  19.394  24.201  0.00  0.00    -0.329 N 
ATOM     29 HE21 GLN A   9       7.565  20.370  24.064  0.00  0.00    +0.145 HD
ATOM     30 HE22 GLN A   9       7.369  18.687  23.450  0.00  0.00    +0.145 HD
ENDBRANCH  25  26
ENDBRANCH  24  25
ENDBRANCH  21  24
ENDBRANCH  19  21
ENDBRANCH  16  17
BRANCH  16  31
ATOM     31  CB  ARG A   8       0.626  19.400  29.076  0.00  0.00    +0.033 C 
BRANCH  31  32
ATOM     32  CG  ARG A   8       1.014  20.496  30.055  0.00  0.00    +0.045 C 
BRANCH  32  33
ATOM     33  CD  ARG A   8      -0.226  21.246  30.545  0.00  0.00    +0.174 C 
BRANCH  33  34
ATOM     34  NE  ARG A   8      -1.034  21.799  29.454  0.00  0.00    -0.265 N 
ATOM     35  CZ  ARG A   8      -2.210  21.315  29.049  0.00  0.00    +0.342 C 
ATOM     36  NH2 ARG A   8      -2.749  20.244  29.629  0.00  0.00    -0.292 N 
ATOM     37 HH21 ARG A   8      -2.253  19.771  30.411  0.00  0.00    +0.255 HD
ATOM     38 HH22 ARG A   8      -3.666  19.881  29.300  0.00  0.00    +0.255 HD
ATOM     39  NH1 ARG A   8      -2.852  21.907  28.049  0.00  0.00    -0.292 N 
ATOM     40 HH11 ARG A   8      -3.769  21.536  27.728  0.00  0.00    +0.255 HD
ATOM     41 HH12 ARG A   8      -2.438  22.742  27.587  0.00  0.00    +0.255 HD
ATOM     42  HE  ARG A   8      -0.662  22.633  28.957  0.00  0.00    +0.259 HD
ENDBRANCH  33  34
ENDBRANCH  32  33
ENDBRANCH  31  32
ENDBRANCH  16  31
ENDBRANCH  13  16
ENDBRANCH  11  12
ENDBRANCH   8  11
ENDBRANCH   6   7
BRANCH   6  43
ATOM     43  CB  LYS A   6      -2.272  11.199  30.145  0.00  0.00    +0.029 C 
BRANCH  43  44
ATOM     44  CG  LYS A   6      -2.120   9.840  30.845  0.00  0.00    +0.000 C 
BRANCH  44  45
ATOM     45  CD  LYS A   6      -3.425   9.049  30.921  0.00  0.00    -0.024 C 
BRANCH  45  46
ATOM     46  CE  LYS A   6      -3.872   8.559  29.545  0.00  0.00    -0.086 C 
BRANCH  46  47
ATOM     47  NZ  LYS A   6      -2.777   7.926  28.748  0.00  0.00    +0.380 N 
ATOM     48  HZ1 LYS A   6      -2.405   7.104  29.265  0.00  0.00    -0.089 HD
ATOM     49  HZ2 LYS A   6      -2.014   8.617  28.599  0.00  0.00    -0.089 HD
ATOM     50  HZ3 LYS A   6      -3.153   7.618  27.828  0.00  0.00    -0.089 HD
ENDBRANCH  46  47
ENDBRANCH  45  46
ENDBRANCH  44  45
ENDBRANCH  43  44
ENDBRANCH   6  43
ENDBRANCH   3   6
ENDBRANCH   1   2
BRANCH   1  52
ATOM     51  C   HIS A   4       2.967  11.817  31.559  0.00  0.00    +0.241 C 
ATOM     52  N   GLU A   5       2.743  10.516  31.401  0.00  0.00    -0.297 N 
ATOM     53  H   GLU A   5       2.857   9.883  32.218  0.00  0.00    +0.150 HD
ATOM     54  O   HIS A   4       2.883  12.628  30.633  0.00  0.00    -0.273 OA
BRANCH  51  55
ATOM     55  CA  HIS A   4       3.389  12.284  32.952  0.00  0.00    +0.155 C 
BRANCH  55  58
ATOM     56  C   THR A   3       5.082  13.968  33.588  0.00  0.00    +0.243 C 
ATOM     57  O   THR A   3       5.285  13.473  34.692  0.00  0.00    -0.273 OA
ATOM     58  N   HIS A   4       4.158  13.513  32.743  0.00  0.00    -0.297 N 
ATOM     59  H   HIS A   4       3.971  14.065  31.881  0.00  0.00    +0.150 HD
BRANCH  56  60
ATOM     60  CA  THR A   3       5.804  15.254  33.165  0.00  0.00    +0.176 C 
BRANCH  60  62
ATOM     61  C   ARG A   2       6.220  15.145  30.743  0.00  0.00    +0.241 C 
ATOM     62  N   THR A   3       5.520  15.628  31.773  0.00  0.00    -0.295 N 
ATOM     63  H   THR A   3       4.744  16.294  31.582  0.00  0.00    +0.150 HD
ATOM     64  O   ARG A   2       7.178  14.371  30.879  0.00  0.00    -0.273 OA
BRANCH  61  65
ATOM     65  CA  ARG A   2       5.790  15.619  29.354  0.00  0.00    +0.149 C 
BRANCH  65  68
ATOM     66  C   GLY A   1       7.865  16.737  28.677  0.00  0.00    +0.240 C 
ATOM     67  O   GLY A   1       7.935  17.411  29.716  0.00  0.00    -0.274 OA
ATOM     68  N   ARG A   2       6.899  15.857  28.438  0.00  0.00    -0.297 N 
ATOM     69  H   ARG A   2       6.936  15.311  27.554  0.00  0.00    +0.150 HD
BRANCH  66  70
ATOM     70  CA  GLY A   1       8.918  16.842  27.593  0.00  0.00    +0.169 C 
BRANCH  70  71
ATOM     71  N   GLY A   1      10.032  17.719  27.891  0.00  0.00    -0.236 NA
ATOM     72  H   GLY A   1      10.993  17.327  27.958  0.00  0.00    +0.142 HD
ENDBRANCH  70  71
ENDBRANCH  66  70
ENDBRANCH  65  68
BRANCH  65  73
ATOM     73  CB  ARG A   2       4.784  14.642  28.723  0.00  0.00    +0.033 C 
BRANCH  73  74
ATOM     74  CG  ARG A   2       4.288  15.074  27.344  0.00  0.00    +0.045 C 
BRANCH  74  75
ATOM     75  CD  ARG A   2       3.211  14.148  26.766  0.00  0.00    +0.174 C 
BRANCH  75  76
ATOM     76  NE  ARG A   2       2.895  14.499  25.377  0.00  0.00    -0.265 N 
ATOM     77  CZ  ARG A   2       1.958  15.376  25.007  0.00  0.00    +0.342 C 
ATOM     78  NH2 ARG A   2       1.197  15.976  25.912  0.00  0.00    -0.292 N 
ATOM     79 HH21 ARG A   2       1.326  15.766  26.922  0.00  0.00    +0.255 HD
ATOM     80 HH22 ARG A   2       0.471  16.657  25.612  0.00  0.00    +0.255 HD
ATOM     81  NH1 ARG A   2       1.758  15.636  23.721  0.00  0.00    -0.292 N 
ATOM     82 HH11 ARG A   2       1.028  16.319  23.436  0.00  0.00    +0.255 HD
ATOM     83 HH12 ARG A   2       2.332  15.156  22.998  0.00  0.00    +0.255 HD
ATOM     84  HE  ARG A   2       3.440  14.031  24.625  0.00  0.00    +0.259 HD
ENDBRANCH  75  76
ENDBRANCH  74  75
ENDBRANCH  73  74
ENDBRANCH  65  73
ENDBRANCH  61  65
ENDBRANCH  60  62
BRANCH  60  85
ATOM     85  CB  THR A   3       5.426  16.365  34.141  0.00  0.00    +0.137 C 
ATOM     86  CG2 THR A   3       6.551  17.361  34.255  0.00  0.00    +0.034 C 
BRANCH  85  87
ATOM     87  OG1 THR A   3       4.248  17.033  33.672  0.00  0.00    -0.382 OA
ATOM     88  HG1 THR A   3       4.004  17.753  34.306  0.00  0.00    +0.210 HD
ENDBRANCH  85  87
ENDBRANCH  60  85
ENDBRANCH  56  60
ENDBRANCH  55  58
BRANCH  55  89
ATOM     89  CB  HIS A   4       2.153  12.526  33.825  0.00  0.00    +0.076 C 
BRANCH  89  90
ATOM     90  CG  HIS A   4       2.469  13.047  35.192  0.00  0.00    +0.082 A 
ATOM     91  CD2 HIS A   4       2.986  12.434  36.284  0.00  0.00    +0.115 A 
ATOM     92  NE2 HIS A   4       3.119  13.389  37.263  0.00  0.00    -0.221 NA
ATOM     93  CE1 HIS A   4       2.693  14.548  36.792  0.00  0.00    +0.199 A 
ATOM     94  ND1 HIS A   4       2.292  14.368  35.544  0.00  0.00    -0.227 NA
ENDBRANCH  89  90
ENDBRANCH  55  89
ENDBRANCH  51  55
ENDBRANCH   1  52
BRANCH   1  95
ATOM     95  CB  GLU A   5       1.952   8.477  30.268  0.00  0.00    +0.041 C 
BRANCH  95  96
ATOM     96  CG  GLU A   5       2.086   7.656  28.999  0.00  0.00    +0.116 C 
BRANCH  96  97
ATOM     97  CD  GLU A   5       1.691   6.204  29.207  0.00  0.00    +0.365 C 
ATOM     98  OE2 GLU A   5       2.463   5.463  29.854  0.00  0.00    -0.246 OA
ATOM     99  OE1 GLU A   5       0.601   5.810  28.731  0.00  0.00    -0.246 OA
ENDBRANCH  96  97
ENDBRANCH  95  96
ENDBRANCH   1  95
TORSDOF 41
REMARK  Name = ../refined-set-2016/1lpg/1lpg_pocket.pdb
REMARK  230 active torsions:
REMARK  status: ('A' for Active; 'I' for Inactive)
REMARK    1  A    between atoms: _1  and  _5
REMARK    2  A    between atoms: _5  and  _6
REMARK    3  A    between atoms: _5  and  _8
REMARK    4  A    between atoms: _8  and  _9
REMARK    5  A    between atoms: _12  and  _14
REMARK    6  A    between atoms: _14  and  _15
REMARK    7  A    between atoms: _14  and  _17
REMARK    8  A    between atoms: _20  and  _22
REMARK    9  A    between atoms: _22  and  _23
REMARK   10  A    between atoms: _22  and  _25
REMARK   11  A    between atoms: _25  and  _26
REMARK   12  A    between atoms: _31  and  _33
REMARK   13  A    between atoms: _33  and  _34
REMARK   14  A    between atoms: _33  and  _36
REMARK   15  A    between atoms: _36  and  _37
REMARK   16  A    between atoms: _37  and  _38
REMARK   17  A    between atoms: _43  and  _45
REMARK   18  A    between atoms: _45  and  _46
REMARK   19  A    between atoms: _45  and  _48
REMARK   20  A    between atoms: _48  and  _49
REMARK   21  A    between atoms: _55  and  _57
REMARK   22  A    between atoms: _57  and  _58
REMARK   23  A    between atoms: _57  and  _60
REMARK   24  A    between atoms: _60  and  _61
REMARK   25  A    between atoms: _64  and  _66
REMARK   26  A    between atoms: _66  and  _67
REMARK   27  A    between atoms: _66  and  _69
REMARK   28  A    between atoms: _69  and  _70
REMARK   29  A    between atoms: _70  and  _71
REMARK   30  A    between atoms: _71  and  _72
REMARK   31  A    between atoms: _72  and  _73
REMARK   32  A    between atoms: _77  and  _79
REMARK   33  A    between atoms: _79  and  _80
REMARK   34  A    between atoms: _79  and  _82
REMARK   35  A    between atoms: _82  and  _83
REMARK   36  A    between atoms: _83  and  _84
REMARK   37  A    between atoms: _87  and  _89
REMARK   38  A    between atoms: _89  and  _90
REMARK   39  A    between atoms: _89  and  _92
REMARK   40  A    between atoms: _92  and  _93
REMARK   41  A    between atoms: _96  and  _98
REMARK   42  A    between atoms: _98  and  _99
REMARK   43  A    between atoms: _98  and  _101
REMARK   44  A    between atoms: _101  and  _102
REMARK   45  A    between atoms: _107  and  _108
REMARK   46  A    between atoms: _110  and  _112
REMARK   47  A    between atoms: _112  and  _113
REMARK   48  A    between atoms: _112  and  _115
REMARK   49  A    between atoms: _115  and  _116
REMARK   50  A    between atoms: _119  and  _121
REMARK   51  A    between atoms: _121  and  _122
REMARK   52  A    between atoms: _121  and  _124
REMARK   53  A    between atoms: _124  and  _125
REMARK   54  A    between atoms: _128  and  _130
REMARK   55  A    between atoms: _130  and  _131
REMARK   56  A    between atoms: _130  and  _133
REMARK   57  A    between atoms: _136  and  _138
REMARK   58  A    between atoms: _138  and  _139
REMARK   59  A    between atoms: _141  and  _143
REMARK   60  A    between atoms: _143  and  _144
REMARK   61  A    between atoms: _143  and  _146
REMARK   62  A    between atoms: _146  and  _147
REMARK   63  A    between atoms: _147  and  _148
REMARK   64  A    between atoms: _148  and  _149
REMARK   65  A    between atoms: _158  and  _160
REMARK   66  A    between atoms: _160  and  _161
REMARK   67  A    between atoms: _160  and  _163
REMARK   68  A    between atoms: _163  and  _164
REMARK   69  A    between atoms: _167  and  _169
REMARK   70  A    between atoms: _169  and  _170
REMARK   71  A    between atoms: _169  and  _172
REMARK   72  A    between atoms: _172  and  _173
REMARK   73  A    between atoms: _178  and  _180
REMARK   74  A    between atoms: _180  and  _181
REMARK   75  A    between atoms: _180  and  _183
REMARK   76  A    between atoms: _183  and  _184
REMARK   77  A    between atoms: _184  and  _185
REMARK   78  A    between atoms: _188  and  _190
REMARK   79  A    between atoms: _190  and  _191
REMARK   80  A    between atoms: _190  and  _193
REMARK   81  A    between atoms: _193  and  _194
REMARK   82  A    between atoms: _194  and  _195
REMARK   83  A    between atoms: _195  and  _196
REMARK   84  A    between atoms: _196  and  _197
REMARK   85  A    between atoms: _201  and  _203
REMARK   86  A    between atoms: _203  and  _204
REMARK   87  A    between atoms: _206  and  _208
REMARK   88  A    between atoms: _208  and  _209
REMARK   89  A    between atoms: _208  and  _211
REMARK   90  A    between atoms: _211  and  _212
REMARK   91  A    between atoms: _212  and  _213
REMARK   92  A    between atoms: _213  and  _214
REMARK   93  A    between atoms: _223  and  _225
REMARK   94  A    between atoms: _225  and  _226
REMARK   95  A    between atoms: _225  and  _228
REMARK   96  A    between atoms: _228  and  _229
REMARK   97  A    between atoms: _229  and  _230
REMARK   98  A    between atoms: _235  and  _237
REMARK   99  A    between atoms: _237  and  _238
REMARK  100  A    between atoms: _237  and  _240
REMARK  101  A    between atoms: _240  and  _241
REMARK  102  A    between atoms: _244  and  _246
REMARK  103  A    between atoms: _246  and  _247
REMARK  104  A    between atoms: _246  and  _249
REMARK  105  A    between atoms: _252  and  _254
REMARK  106  A    between atoms: _254  and  _255
REMARK  107  A    between atoms: _254  and  _257
REMARK  108  A    between atoms: _257  and  _258
REMARK  109  A    between atoms: _260  and  _262
REMARK  110  A    between atoms: _262  and  _263
REMARK  111  A    between atoms: _262  and  _265
REMARK  112  A    between atoms: _265  and  _266
REMARK  113  A    between atoms: _268  and  _270
REMARK  114  A    between atoms: _270  and  _271
REMARK  115  A    between atoms: _270  and  _273
REMARK  116  A    between atoms: _273  and  _274
REMARK  117  A    between atoms: _280  and  _282
REMARK  118  A    between atoms: _282  and  _283
REMARK  119  A    between atoms: _282  and  _285
REMARK  120  A    between atoms: _285  and  _286
REMARK  121  A    between atoms: _289  and  _291
REMARK  122  A    between atoms: _291  and  _292
REMARK  123  A    between atoms: _291  and  _294
REMARK  124  A    between atoms: _294  and  _295
REMARK  125  A    between atoms: _298  and  _300
REMARK  126  A    between atoms: _300  and  _301
REMARK  127  A    between atoms: _300  and  _303
REMARK  128  A    between atoms: _303  and  _304
REMARK  129  A    between atoms: _307  and  _309
REMARK  130  A    between atoms: _309  and  _310
REMARK  131  A    between atoms: _309  and  _312
REMARK  132  A    between atoms: _312  and  _313
REMARK  133  A    between atoms: _313  and  _314
REMARK  134  A    between atoms: _316  and  _318
REMARK  135  A    between atoms: _318  and  _319
REMARK  136  A    between atoms: _318  and  _321
REMARK  137  A    between atoms: _323  and  _325
REMARK  138  A    between atoms: _325  and  _326
REMARK  139  A    between atoms: _329  and  _331
REMARK  140  A    between atoms: _331  and  _332
REMARK  141  A    between atoms: _334  and  _336
REMARK  142  A    between atoms: _336  and  _337
REMARK  143  A    between atoms: _336  and  _339
REMARK  144  A    between atoms: _339  and  _340
REMARK  145  A    between atoms: _340  and  _341
REMARK  146  A    between atoms: _344  and  _346
REMARK  147  A    between atoms: _346  and  _347
REMARK  148  A    between atoms: _346  and  _349
REMARK  149  A    between atoms: _349  and  _350
REMARK  150  A    between atoms: _353  and  _355
REMARK  151  A    between atoms: _355  and  _356
REMARK  152  A    between atoms: _359  and  _361
REMARK  153  A    between atoms: _361  and  _362
REMARK  154  A    between atoms: _361  and  _364
REMARK  155  A    between atoms: _364  and  _365
REMARK  156  A    between atoms: _365  and  _468
REMARK  157  A    between atoms: _366  and  _368
REMARK  158  A    between atoms: _368  and  _369
REMARK  159  A    between atoms: _368  and  _371
REMARK  160  A    between atoms: _371  and  _372
REMARK  161  A    between atoms: _372  and  _373
REMARK  162  A    between atoms: _378  and  _380
REMARK  163  A    between atoms: _380  and  _381
REMARK  164  A    between atoms: _383  and  _385
REMARK  165  A    between atoms: _385  and  _386
REMARK  166  A    between atoms: _385  and  _388
REMARK  167  A    between atoms: _388  and  _389
REMARK  168  A    between atoms: _392  and  _394
REMARK  169  A    between atoms: _394  and  _395
REMARK  170  A    between atoms: _394  and  _397
REMARK  171  A    between atoms: _397  and  _398
REMARK  172  A    between atoms: _400  and  _402
REMARK  173  A    between atoms: _402  and  _403
REMARK  174  A    between atoms: _405  and  _407
REMARK  175  A    between atoms: _407  and  _408
REMARK  176  A    between atoms: _410  and  _412
REMARK  177  A    between atoms: _412  and  _413
REMARK  178  A    between atoms: _412  and  _415
REMARK  179  A    between atoms: _418  and  _420
REMARK  180  A    between atoms: _420  and  _421
REMARK  181  A    between atoms: _420  and  _423
REMARK  182  A    between atoms: _423  and  _424
REMARK  183  A    between atoms: _426  and  _428
REMARK  184  A    between atoms: _428  and  _429
REMARK  185  A    between atoms: _428  and  _431
REMARK  186  A    between atoms: _431  and  _432
REMARK  187  A    between atoms: _442  and  _444
REMARK  188  A    between atoms: _444  and  _445
REMARK  189  A    between atoms: _447  and  _449
REMARK  190  A    between atoms: _449  and  _450
REMARK  191  A    between atoms: _449  and  _452
REMARK  192  A    between atoms: _452  and  _453
REMARK  193  A    between atoms: _453  and  _454
REMARK  194  A    between atoms: _457  and  _459
REMARK  195  A    between atoms: _459  and  _460
REMARK  196  A    between atoms: _462  and  _464
REMARK  197  A    between atoms: _464  and  _465
REMARK  198  A    between atoms: _464  and  _467
REMARK  199  A    between atoms: _467  and  _468
REMARK  200  A    between atoms: _469  and  _471
REMARK  201  A    between atoms: _471  and  _472
REMARK  202  A    between atoms: _475  and  _477
REMARK  203  A    between atoms: _477  and  _478
REMARK  204  A    between atoms: _477  and  _480
REMARK  205  A    between atoms: _480  and  _481
REMARK  206  A    between atoms: _481  and  _482
REMARK  207  A    between atoms: _482  and  _483
REMARK  208  A    between atoms: _492  and  _494
REMARK  209  A    between atoms: _494  and  _495
REMARK  210  A    between atoms: _494  and  _497
REMARK  211  A    between atoms: _497  and  _498
REMARK  212  A    between atoms: _498  and  _499
REMARK  213  A    between atoms: _499  and  _500
REMARK  214  A    between atoms: _500  and  _501
REMARK  215  A    between atoms: _505  and  _507
REMARK  216  A    between atoms: _507  and  _508
REMARK  217  A    between atoms: _507  and  _510
REMARK  218  A    between atoms: _510  and  _511
REMARK  219  A    between atoms: _516  and  _517
REMARK  220  A    between atoms: _519  and  _521
REMARK  221  A    between atoms: _521  and  _522
REMARK  222  A    between atoms: _524  and  _526
REMARK  223  A    between atoms: _526  and  _527
REMARK  224  A    between atoms: _526  and  _529
REMARK  225  A    between atoms: _529  and  _530
REMARK  226  A    between atoms: _533  and  _535
REMARK  227  A    between atoms: _535  and  _536
REMARK  228  A    between atoms: _535  and  _538
REMARK  229  A    between atoms: _538  and  _539
REMARK  230  A    between atoms: _544  and  _545
REMARK                            x       y       z     vdW  Elec       q    Type
REMARK                         _______ _______ _______ _____ _____    ______ ____
ROOT
ATOM      1  CA  LEU A   1      16.577  12.696  35.685  0.00  0.00    +0.133 C 
ENDROOT
BRANCH   1   2
ATOM      2  N   LEU A   1      16.878  13.908  34.932  0.00  0.00    -0.239 NA
ATOM      3  H   LEU A   1      17.562  13.858  34.150  0.00  0.00    +0.142 HD
ENDBRANCH   1   2
BRANCH   1   4
ATOM      4  C   LEU A   1      17.738  11.729  35.604  0.00  0.00    +0.224 C 
ATOM      5  O   LEU A   1      18.337  11.554  34.557  0.00  0.00    -0.287 OA
ENDBRANCH   1   4
BRANCH   1   6
ATOM      6  CB  LEU A   1      15.333  12.002  35.129  0.00  0.00    +0.025 C 
BRANCH   6   7
ATOM      7  CG  LEU A   1      15.053  10.589  35.655  0.00  0.00    +0.002 C 
ATOM      8  CD2 LEU A   1      14.736  10.630  37.132  0.00  0.00    +0.000 C 
ATOM      9  CD1 LEU A   1      13.905   9.948  34.893  0.00  0.00    +0.000 C 
ENDBRANCH   6   7
ENDBRANCH   1   6
TORSDOF 4
REMARK  Name = ../refined-set-2016/1lpg/1lpg_pocket.pdb
REMARK  230 active torsions:
REMARK  status: ('A' for Active; 'I' for Inactive)
REMARK    1  A    between atoms: _1  and  _5
REMARK    2  A    between atoms: _5  and  _6
REMARK    3  A    between atoms: _5  and  _8
REMARK    4  A    between atoms: _8  and  _9
REMARK    5  A    between atoms: _12  and  _14
REMARK    6  A    between atoms: _14  and  _15
REMARK    7  A    between atoms: _14  and  _17
REMARK    8  A    between atoms: _20  and  _22
REMARK    9  A    between atoms: _22  and  _23
REMARK   10  A    between atoms: _22  and  _25
REMARK   11  A    between atoms: _25  and  _26
REMARK   12  A    between atoms: _31  and  _33
REMARK   13  A    between atoms: _33  and  _34
REMARK   14  A    between atoms: _33  and  _36
REMARK   15  A    between atoms: _36  and  _37
REMARK   16  A    between atoms: _37  and  _38
REMARK   17  A    between atoms: _43  and  _45
REMARK   18  A    between atoms: _45  and  _46
REMARK   19  A    between atoms: _45  and  _48
REMARK   20  A    between atoms: _48  and  _49
REMARK   21  A    between atoms: _55  and  _57
REMARK   22  A    between atoms: _57  and  _58
REMARK   23  A    between atoms: _57  and  _60
REMARK   24  A    between atoms: _60  and  _61
REMARK   25  A    between atoms: _64  and  _66
REMARK   26  A    between atoms: _66  and  _67
REMARK   27  A    between atoms: _66  and  _69
REMARK   28  A    between atoms: _69  and  _70
REMARK   29  A    between atoms: _70  and  _71
REMARK   30  A    between atoms: _71  and  _72
REMARK   31  A    between atoms: _72  and  _73
REMARK   32  A    between atoms: _77  and  _79
REMARK   33  A    between atoms: _79  and  _80
REMARK   34  A    between atoms: _79  and  _82
REMARK   35  A    between atoms: _82  and  _83
REMARK   36  A    between atoms: _83  and  _84
REMARK   37  A    between atoms: _87  and  _89
REMARK   38  A    between atoms: _89  and  _90
REMARK   39  A    between atoms: _89  and  _92
REMARK   40  A    between atoms: _92  and  _93
REMARK   41  A    between atoms: _96  and  _98
REMARK   42  A    between atoms: _98  and  _99
REMARK   43  A    between atoms: _98  and  _101
REMARK   44  A    between atoms: _101  and  _102
REMARK   45  A    between atoms: _107  and  _108
REMARK   46  A    between atoms: _110  and  _112
REMARK   47  A    between atoms: _112  and  _113
REMARK   48  A    between atoms: _112  and  _115
REMARK   49  A    between atoms: _115  and  _116
REMARK   50  A    between atoms: _119  and  _121
REMARK   51  A    between atoms: _121  and  _122
REMARK   52  A    between atoms: _121  and  _124
REMARK   53  A    between atoms: _124  and  _125
REMARK   54  A    between atoms: _128  and  _130
REMARK   55  A    between atoms: _130  and  _131
REMARK   56  A    between atoms: _130  and  _133
REMARK   57  A    between atoms: _136  and  _138
REMARK   58  A    between atoms: _138  and  _139
REMARK   59  A    between atoms: _141  and  _143
REMARK   60  A    between atoms: _143  and  _144
REMARK   61  A    between atoms: _143  and  _146
REMARK   62  A    between atoms: _146  and  _147
REMARK   63  A    between atoms: _147  and  _148
REMARK   64  A    between atoms: _148  and  _149
REMARK   65  A    between atoms: _158  and  _160
REMARK   66  A    between atoms: _160  and  _161
REMARK   67  A    between atoms: _160  and  _163
REMARK   68  A    between atoms: _163  and  _164
REMARK   69  A    between atoms: _167  and  _169
REMARK   70  A    between atoms: _169  and  _170
REMARK   71  A    between atoms: _169  and  _172
REMARK   72  A    between atoms: _172  and  _173
REMARK   73  A    between atoms: _178  and  _180
REMARK   74  A    between atoms: _180  and  _181
REMARK   75  A    between atoms: _180  and  _183
REMARK   76  A    between atoms: _183  and  _184
REMARK   77  A    between atoms: _184  and  _185
REMARK   78  A    between atoms: _188  and  _190
REMARK   79  A    between atoms: _190  and  _191
REMARK   80  A    between atoms: _190  and  _193
REMARK   81  A    between atoms: _193  and  _194
REMARK   82  A    between atoms: _194  and  _195
REMARK   83  A    between atoms: _195  and  _196
REMARK   84  A    between atoms: _196  and  _197
REMARK   85  A    between atoms: _201  and  _203
REMARK   86  A    between atoms: _203  and  _204
REMARK   87  A    between atoms: _206  and  _208
REMARK   88  A    between atoms: _208  and  _209
REMARK   89  A    between atoms: _208  and  _211
REMARK   90  A    between atoms: _211  and  _212
REMARK   91  A    between atoms: _212  and  _213
REMARK   92  A    between atoms: _213  and  _214
REMARK   93  A    between atoms: _223  and  _225
REMARK   94  A    between atoms: _225  and  _226
REMARK   95  A    between atoms: _225  and  _228
REMARK   96  A    between atoms: _228  and  _229
REMARK   97  A    between atoms: _229  and  _230
REMARK   98  A    between atoms: _235  and  _237
REMARK   99  A    between atoms: _237  and  _238
REMARK  100  A    between atoms: _237  and  _240
REMARK  101  A    between atoms: _240  and  _241
REMARK  102  A    between atoms: _244  and  _246
REMARK  103  A    between atoms: _246  and  _247
REMARK  104  A    between atoms: _246  and  _249
REMARK  105  A    between atoms: _252  and  _254
REMARK  106  A    between atoms: _254  and  _255
REMARK  107  A    between atoms: _254  and  _257
REMARK  108  A    between atoms: _257  and  _258
REMARK  109  A    between atoms: _260  and  _262
REMARK  110  A    between atoms: _262  and  _263
REMARK  111  A    between atoms: _262  and  _265
REMARK  112  A    between atoms: _265  and  _266
REMARK  113  A    between atoms: _268  and  _270
REMARK  114  A    between atoms: _270  and  _271
REMARK  115  A    between atoms: _270  and  _273
REMARK  116  A    between atoms: _273  and  _274
REMARK  117  A    between atoms: _280  and  _282
REMARK  118  A    between atoms: _282  and  _283
REMARK  119  A    between atoms: _282  and  _285
REMARK  120  A    between atoms: _285  and  _286
REMARK  121  A    between atoms: _289  and  _291
REMARK  122  A    between atoms: _291  and  _292
REMARK  123  A    between atoms: _291  and  _294
REMARK  124  A    between atoms: _294  and  _295
REMARK  125  A    between atoms: _298  and  _300
REMARK  126  A    between atoms: _300  and  _301
REMARK  127  A    between atoms: _300  and  _303
REMARK  128  A    between atoms: _303  and  _304
REMARK  129  A    between atoms: _307  and  _309
REMARK  130  A    between atoms: _309  and  _310
REMARK  131  A    between atoms: _309  and  _312
REMARK  132  A    between atoms: _312  and  _313
REMARK  133  A    between atoms: _313  and  _314
REMARK  134  A    between atoms: _316  and  _318
REMARK  135  A    between atoms: _318  and  _319
REMARK  136  A    between atoms: _318  and  _321
REMARK  137  A    between atoms: _323  and  _325
REMARK  138  A    between atoms: _325  and  _326
REMARK  139  A    between atoms: _329  and  _331
REMARK  140  A    between atoms: _331  and  _332
REMARK  141  A    between atoms: _334  and  _336
REMARK  142  A    between atoms: _336  and  _337
REMARK  143  A    between atoms: _336  and  _339
REMARK  144  A    between atoms: _339  and  _340
REMARK  145  A    between atoms: _340  and  _341
REMARK  146  A    between atoms: _344  and  _346
REMARK  147  A    between atoms: _346  and  _347
REMARK  148  A    between atoms: _346  and  _349
REMARK  149  A    between atoms: _349  and  _350
REMARK  150  A    between atoms: _353  and  _355
REMARK  151  A    between atoms: _355  and  _356
REMARK  152  A    between atoms: _359  and  _361
REMARK  153  A    between atoms: _361  and  _362
REMARK  154  A    between atoms: _361  and  _364
REMARK  155  A    between atoms: _364  and  _365
REMARK  156  A    between atoms: _365  and  _468
REMARK  157  A    between atoms: _366  and  _368
REMARK  158  A    between atoms: _368  and  _369
REMARK  159  A    between atoms: _368  and  _371
REMARK  160  A    between atoms: _371  and  _372
REMARK  161  A    between atoms: _372  and  _373
REMARK  162  A    between atoms: _378  and  _380
REMARK  163  A    between atoms: _380  and  _381
REMARK  164  A    between atoms: _383  and  _385
REMARK  165  A    between atoms: _385  and  _386
REMARK  166  A    between atoms: _385  and  _388
REMARK  167  A    between atoms: _388  and  _389
REMARK  168  A    between atoms: _392  and  _394
REMARK  169  A    between atoms: _394  and  _395
REMARK  170  A    between atoms: _394  and  _397
REMARK  171  A    between atoms: _397  and  _398
REMARK  172  A    between atoms: _400  and  _402
REMARK  173  A    between atoms: _402  and  _403
REMARK  174  A    between atoms: _405  and  _407
REMARK  175  A    between atoms: _407  and  _408
REMARK  176  A    between atoms: _410  and  _412
REMARK  177  A    between atoms: _412  and  _413
REMARK  178  A    between atoms: _412  and  _415
REMARK  179  A    between atoms: _418  and  _420
REMARK  180  A    between atoms: _420  and  _421
REMARK  181  A    between atoms: _420  and  _423
REMARK  182  A    between atoms: _423  and  _424
REMARK  183  A    between atoms: _426  and  _428
REMARK  184  A    between atoms: _428  and  _429
REMARK  185  A    between atoms: _428  and  _431
REMARK  186  A    between atoms: _431  and  _432
REMARK  187  A    between atoms: _442  and  _444
REMARK  188  A    between atoms: _444  and  _445
REMARK  189  A    between atoms: _447  and  _449
REMARK  190  A    between atoms: _449  and  _450
REMARK  191  A    between atoms: _449  and  _452
REMARK  192  A    between atoms: _452  and  _453
REMARK  193  A    between atoms: _453  and  _454
REMARK  194  A    between atoms: _457  and  _459
REMARK  195  A    between atoms: _459  and  _460
REMARK  196  A    between atoms: _462  and  _464
REMARK  197  A    between atoms: _464  and  _465
REMARK  198  A    between atoms: _464  and  _467
REMARK  199  A    between atoms: _467  and  _468
REMARK  200  A    between atoms: _469  and  _471
REMARK  201  A    between atoms: _471  and  _472
REMARK  202  A    between atoms: _475  and  _477
REMARK  203  A    between atoms: _477  and  _478
REMARK  204  A    between atoms: _477  and  _480
REMARK  205  A    between atoms: _480  and  _481
REMARK  206  A    between atoms: _481  and  _482
REMARK  207  A    between atoms: _482  and  _483
REMARK  208  A    between atoms: _492  and  _494
REMARK  209  A    between atoms: _494  and  _495
REMARK  210  A    between atoms: _494  and  _497
REMARK  211  A    between atoms: _497  and  _498
REMARK  212  A    between atoms: _498  and  _499
REMARK  213  A    between atoms: _499  and  _500
REMARK  214  A    between atoms: _500  and  _501
REMARK  215  A    between atoms: _505  and  _507
REMARK  216  A    between atoms: _507  and  _508
REMARK  217  A    between atoms: _507  and  _510
REMARK  218  A    between atoms: _510  and  _511
REMARK  219  A    between atoms: _516  and  _517
REMARK  220  A    between atoms: _519  and  _521
REMARK  221  A    between atoms: _521  and  _522
REMARK  222  A    between atoms: _524  and  _526
REMARK  223  A    between atoms: _526  and  _527
REMARK  224  A    between atoms: _526  and  _529
REMARK  225  A    between atoms: _529  and  _530
REMARK  226  A    between atoms: _533  and  _535
REMARK  227  A    between atoms: _535  and  _536
REMARK  228  A    between atoms: _535  and  _538
REMARK  229  A    between atoms: _538  and  _539
REMARK  230  A    between atoms: _544  and  _545
REMARK                            x       y       z     vdW  Elec       q    Type
REMARK                         _______ _______ _______ _____ _____    ______ ____
ROOT
ATOM      1  CA  VAL A   1      18.509   6.908  34.950  0.00  0.00    +0.133 C 
ENDROOT
BRANCH   1   2
ATOM      2  CB  VAL A   1      17.812   6.987  33.573  0.00  0.00    +0.023 C 
ATOM      3  CG2 VAL A   1      16.418   7.527  33.726  0.00  0.00    +0.002 C 
ATOM      4  CG1 VAL A   1      18.619   7.831  32.577  0.00  0.00    +0.002 C 
ENDBRANCH   1   2
BRANCH   1   5
ATOM      5  N   VAL A   1      19.033   8.208  35.382  0.00  0.00    -0.239 NA
ATOM      6  H   VAL A   1      19.821   8.634  34.854  0.00  0.00    +0.142 HD
ENDBRANCH   1   5
BRANCH   1   7
ATOM      7  C   VAL A   1      19.570   5.796  34.940  0.00  0.00    +0.224 C 
ATOM      8  O   VAL A   1      20.599   5.895  34.267  0.00  0.00    -0.287 OA
ENDBRANCH   1   7
TORSDOF 3
REMARK  Name = ../refined-set-2016/1lpg/1lpg_pocket.pdb
REMARK  230 active torsions:
REMARK  status: ('A' for Active; 'I' for Inactive)
REMARK    1  A    between atoms: _1  and  _5
REMARK    2  A    between atoms: _5  and  _6
REMARK    3  A    between atoms: _5  and  _8
REMARK    4  A    between atoms: _8  and  _9
REMARK    5  A    between atoms: _12  and  _14
REMARK    6  A    between atoms: _14  and  _15
REMARK    7  A    between atoms: _14  and  _17
REMARK    8  A    between atoms: _20  and  _22
REMARK    9  A    between atoms: _22  and  _23
REMARK   10  A    between atoms: _22  and  _25
REMARK   11  A    between atoms: _25  and  _26
REMARK   12  A    between atoms: _31  and  _33
REMARK   13  A    between atoms: _33  and  _34
REMARK   14  A    between atoms: _33  and  _36
REMARK   15  A    between atoms: _36  and  _37
REMARK   16  A    between atoms: _37  and  _38
REMARK   17  A    between atoms: _43  and  _45
REMARK   18  A    between atoms: _45  and  _46
REMARK   19  A    between atoms: _45  and  _48
REMARK   20  A    between atoms: _48  and  _49
REMARK   21  A    between atoms: _55  and  _57
REMARK   22  A    between atoms: _57  and  _58
REMARK   23  A    between atoms: _57  and  _60
REMARK   24  A    between atoms: _60  and  _61
REMARK   25  A    between atoms: _64  and  _66
REMARK   26  A    between atoms: _66  and  _67
REMARK   27  A    between atoms: _66  and  _69
REMARK   28  A    between atoms: _69  and  _70
REMARK   29  A    between atoms: _70  and  _71
REMARK   30  A    between atoms: _71  and  _72
REMARK   31  A    between atoms: _72  and  _73
REMARK   32  A    between atoms: _77  and  _79
REMARK   33  A    between atoms: _79  and  _80
REMARK   34  A    between atoms: _79  and  _82
REMARK   35  A    between atoms: _82  and  _83
REMARK   36  A    between atoms: _83  and  _84
REMARK   37  A    between atoms: _87  and  _89
REMARK   38  A    between atoms: _89  and  _90
REMARK   39  A    between atoms: _89  and  _92
REMARK   40  A    between atoms: _92  and  _93
REMARK   41  A    between atoms: _96  and  _98
REMARK   42  A    between atoms: _98  and  _99
REMARK   43  A    between atoms: _98  and  _101
REMARK   44  A    between atoms: _101  and  _102
REMARK   45  A    between atoms: _107  and  _108
REMARK   46  A    between atoms: _110  and  _112
REMARK   47  A    between atoms: _112  and  _113
REMARK   48  A    between atoms: _112  and  _115
REMARK   49  A    between atoms: _115  and  _116
REMARK   50  A    between atoms: _119  and  _121
REMARK   51  A    between atoms: _121  and  _122
REMARK   52  A    between atoms: _121  and  _124
REMARK   53  A    between atoms: _124  and  _125
REMARK   54  A    between atoms: _128  and  _130
REMARK   55  A    between atoms: _130  and  _131
REMARK   56  A    between atoms: _130  and  _133
REMARK   57  A    between atoms: _136  and  _138
REMARK   58  A    between atoms: _138  and  _139
REMARK   59  A    between atoms: _141  and  _143
REMARK   60  A    between atoms: _143  and  _144
REMARK   61  A    between atoms: _143  and  _146
REMARK   62  A    between atoms: _146  and  _147
REMARK   63  A    between atoms: _147  and  _148
REMARK   64  A    between atoms: _148  and  _149
REMARK   65  A    between atoms: _158  and  _160
REMARK   66  A    between atoms: _160  and  _161
REMARK   67  A    between atoms: _160  and  _163
REMARK   68  A    between atoms: _163  and  _164
REMARK   69  A    between atoms: _167  and  _169
REMARK   70  A    between atoms: _169  and  _170
REMARK   71  A    between atoms: _169  and  _172
REMARK   72  A    between atoms: _172  and  _173
REMARK   73  A    between atoms: _178  and  _180
REMARK   74  A    between atoms: _180  and  _181
REMARK   75  A    between atoms: _180  and  _183
REMARK   76  A    between atoms: _183  and  _184
REMARK   77  A    between atoms: _184  and  _185
REMARK   78  A    between atoms: _188  and  _190
REMARK   79  A    between atoms: _190  and  _191
REMARK   80  A    between atoms: _190  and  _193
REMARK   81  A    between atoms: _193  and  _194
REMARK   82  A    between atoms: _194  and  _195
REMARK   83  A    between atoms: _195  and  _196
REMARK   84  A    between atoms: _196  and  _197
REMARK   85  A    between atoms: _201  and  _203
REMARK   86  A    between atoms: _203  and  _204
REMARK   87  A    between atoms: _206  and  _208
REMARK   88  A    between atoms: _208  and  _209
REMARK   89  A    between atoms: _208  and  _211
REMARK   90  A    between atoms: _211  and  _212
REMARK   91  A    between atoms: _212  and  _213
REMARK   92  A    between atoms: _213  and  _214
REMARK   93  A    between atoms: _223  and  _225
REMARK   94  A    between atoms: _225  and  _226
REMARK   95  A    between atoms: _225  and  _228
REMARK   96  A    between atoms: _228  and  _229
REMARK   97  A    between atoms: _229  and  _230
REMARK   98  A    between atoms: _235  and  _237
REMARK   99  A    between atoms: _237  and  _238
REMARK  100  A    between atoms: _237  and  _240
REMARK  101  A    between atoms: _240  and  _241
REMARK  102  A    between atoms: _244  and  _246
REMARK  103  A    between atoms: _246  and  _247
REMARK  104  A    between atoms: _246  and  _249
REMARK  105  A    between atoms: _252  and  _254
REMARK  106  A    between atoms: _254  and  _255
REMARK  107  A    between atoms: _254  and  _257
REMARK  108  A    between atoms: _257  and  _258
REMARK  109  A    between atoms: _260  and  _262
REMARK  110  A    between atoms: _262  and  _263
REMARK  111  A    between atoms: _262  and  _265
REMARK  112  A    between atoms: _265  and  _266
REMARK  113  A    between atoms: _268  and  _270
REMARK  114  A    between atoms: _270  and  _271
REMARK  115  A    between atoms: _270  and  _273
REMARK  116  A    between atoms: _273  and  _274
REMARK  117  A    between atoms: _280  and  _282
REMARK  118  A    between atoms: _282  and  _283
REMARK  119  A    between atoms: _282  and  _285
REMARK  120  A    between atoms: _285  and  _286
REMARK  121  A    between atoms: _289  and  _291
REMARK  122  A    between atoms: _291  and  _292
REMARK  123  A    between atoms: _291  and  _294
REMARK  124  A    between atoms: _294  and  _295
REMARK  125  A    between atoms: _298  and  _300
REMARK  126  A    between atoms: _300  and  _301
REMARK  127  A    between atoms: _300  and  _303
REMARK  128  A    between atoms: _303  and  _304
REMARK  129  A    between atoms: _307  and  _309
REMARK  130  A    between atoms: _309  and  _310
REMARK  131  A    between atoms: _309  and  _312
REMARK  132  A    between atoms: _312  and  _313
REMARK  133  A    between atoms: _313  and  _314
REMARK  134  A    between atoms: _316  and  _318
REMARK  135  A    between atoms: _318  and  _319
REMARK  136  A    between atoms: _318  and  _321
REMARK  137  A    between atoms: _323  and  _325
REMARK  138  A    between atoms: _325  and  _326
REMARK  139  A    between atoms: _329  and  _331
REMARK  140  A    between atoms: _331  and  _332
REMARK  141  A    between atoms: _334  and  _336
REMARK  142  A    between atoms: _336  and  _337
REMARK  143  A    between atoms: _336  and  _339
REMARK  144  A    between atoms: _339  and  _340
REMARK  145  A    between atoms: _340  and  _341
REMARK  146  A    between atoms: _344  and  _346
REMARK  147  A    between atoms: _346  and  _347
REMARK  148  A    between atoms: _346  and  _349
REMARK  149  A    between atoms: _349  and  _350
REMARK  150  A    between atoms: _353  and  _355
REMARK  151  A    between atoms: _355  and  _356
REMARK  152  A    between atoms: _359  and  _361
REMARK  153  A    between atoms: _361  and  _362
REMARK  154  A    between atoms: _361  and  _364
REMARK  155  A    between atoms: _364  and  _365
REMARK  156  A    between atoms: _365  and  _468
REMARK  157  A    between atoms: _366  and  _368
REMARK  158  A    between atoms: _368  and  _369
REMARK  159  A    between atoms: _368  and  _371
REMARK  160  A    between atoms: _371  and  _372
REMARK  161  A    between atoms: _372  and  _373
REMARK  162  A    between atoms: _378  and  _380
REMARK  163  A    between atoms: _380  and  _381
REMARK  164  A    between atoms: _383  and  _385
REMARK  165  A    between atoms: _385  and  _386
REMARK  166  A    between atoms: _385  and  _388
REMARK  167  A    between atoms: _388  and  _389
REMARK  168  A    between atoms: _392  and  _394
REMARK  169  A    between atoms: _394  and  _395
REMARK  170  A    between atoms: _394  and  _397
REMARK  171  A    between atoms: _397  and  _398
REMARK  172  A    between atoms: _400  and  _402
REMARK  173  A    between atoms: _402  and  _403
REMARK  174  A    between atoms: _405  and  _407
REMARK  175  A    between atoms: _407  and  _408
REMARK  176  A    between atoms: _410  and  _412
REMARK  177  A    between atoms: _412  and  _413
REMARK  178  A    between atoms: _412  and  _415
REMARK  179  A    between atoms: _418  and  _420
REMARK  180  A    between atoms: _420  and  _421
REMARK  181  A    between atoms: _420  and  _423
REMARK  182  A    between atoms: _423  and  _424
REMARK  183  A    between atoms: _426  and  _428
REMARK  184  A    between atoms: _428  and  _429
REMARK  185  A    between atoms: _428  and  _431
REMARK  186  A    between atoms: _431  and  _432
REMARK  187  A    between atoms: _442  and  _444
REMARK  188  A    between atoms: _444  and  _445
REMARK  189  A    between atoms: _447  and  _449
REMARK  190  A    between atoms: _449  and  _450
REMARK  191  A    between atoms: _449  and  _452
REMARK  192  A    between atoms: _452  and  _453
REMARK  193  A    between atoms: _453  and  _454
REMARK  194  A    between atoms: _457  and  _459
REMARK  195  A    between atoms: _459  and  _460
REMARK  196  A    between atoms: _462  and  _464
REMARK  197  A    between atoms: _464  and  _465
REMARK  198  A    between atoms: _464  and  _467
REMARK  199  A    between atoms: _467  and  _468
REMARK  200  A    between atoms: _469  and  _471
REMARK  201  A    between atoms: _471  and  _472
REMARK  202  A    between atoms: _475  and  _477
REMARK  203  A    between atoms: _477  and  _478
REMARK  204  A    between atoms: _477  and  _480
REMARK  205  A    between atoms: _480  and  _481
REMARK  206  A    between atoms: _481  and  _482
REMARK  207  A    between atoms: _482  and  _483
REMARK  208  A    between atoms: _492  and  _494
REMARK  209  A    between atoms: _494  and  _495
REMARK  210  A    between atoms: _494  and  _497
REMARK  211  A    between atoms: _497  and  _498
REMARK  212  A    between atoms: _498  and  _499
REMARK  213  A    between atoms: _499  and  _500
REMARK  214  A    between atoms: _500  and  _501
REMARK  215  A    between atoms: _505  and  _507
REMARK  216  A    between atoms: _507  and  _508
REMARK  217  A    between atoms: _507  and  _510
REMARK  218  A    between atoms: _510  and  _511
REMARK  219  A    between atoms: _516  and  _517
REMARK  220  A    between atoms: _519  and  _521
REMARK  221  A    between atoms: _521  and  _522
REMARK  222  A    between atoms: _524  and  _526
REMARK  223  A    between atoms: _526  and  _527
REMARK  224  A    between atoms: _526  and  _529
REMARK  225  A    between atoms: _529  and  _530
REMARK  226  A    between atoms: _533  and  _535
REMARK  227  A    between atoms: _535  and  _536
REMARK  228  A    between atoms: _535  and  _538
REMARK  229  A    between atoms: _538  and  _539
REMARK  230  A    between atoms: _544  and  _545
REMARK                            x       y       z     vdW  Elec       q    Type
REMARK                         _______ _______ _______ _____ _____    ______ ____
ROOT
ATOM      1  C   PHE A   3      10.888  -4.495  19.975  0.00  0.00    +0.241 C 
ATOM      2  O   PHE A   3      11.523  -4.521  21.032  0.00  0.00    -0.273 OA
ATOM      3  N   ILE A   4      11.444  -4.722  18.794  0.00  0.00    -0.297 N 
ATOM      4  H   ILE A   4      10.863  -4.656  17.934  0.00  0.00    +0.150 HD
ENDROOT
BRANCH   3   5
ATOM      5  CA  ILE A   4      12.854  -5.062  18.680  0.00  0.00    +0.149 C 
BRANCH   5   6
ATOM      6  C   ILE A   4      13.820  -3.992  19.202  0.00  0.00    +0.241 C 
ATOM      7  N   ILE A   5      14.777  -4.434  20.009  0.00  0.00    -0.297 N 
ATOM      8  H   ILE A   5      14.798  -5.444  20.254  0.00  0.00    +0.150 HD
ATOM      9  O   ILE A   4      13.656  -2.803  18.949  0.00  0.00    -0.273 OA
BRANCH   7  10
ATOM     10  CA  ILE A   5      15.796  -3.557  20.562  0.00  0.00    +0.149 C 
BRANCH  10  11
ATOM     11  C   ILE A   5      17.038  -3.899  19.768  0.00  0.00    +0.241 C 
ATOM     12  O   ILE A   5      17.681  -4.911  20.006  0.00  0.00    -0.273 OA
ATOM     13  N   THR A   6      17.267  -3.122  18.722  0.00  0.00    -0.296 N 
ATOM     14  H   THR A   6      16.608  -2.344  18.517  0.00  0.00    +0.150 HD
BRANCH  13  15
ATOM     15  CA  THR A   6      18.406  -3.322  17.857  0.00  0.00    +0.164 C 
BRANCH  15  16
ATOM     16  CB  THR A   6      18.294  -2.478  16.601  0.00  0.00    +0.136 C 
ATOM     17  CG2 THR A   6      16.858  -2.471  16.104  0.00  0.00    +0.034 C 
BRANCH  16  18
ATOM     18  OG1 THR A   6      18.718  -1.136  16.883  0.00  0.00    -0.382 OA
ATOM     19  HG1 THR A   6      18.644  -0.588  16.062  0.00  0.00    +0.210 HD
ENDBRANCH  16  18
ENDBRANCH  15  16
BRANCH  15  20
ATOM     20  C   THR A   6      19.702  -2.998  18.575  0.00  0.00    +0.229 C 
ATOM     21  O   THR A   6      19.699  -2.395  19.652  0.00  0.00    -0.286 OA
ENDBRANCH  15  20
ENDBRANCH  13  15
ENDBRANCH  10  11
BRANCH  10  22
ATOM     22  CB  ILE A   5      16.068  -3.831  22.042  0.00  0.00    +0.027 C 
ATOM     23  CG2 ILE A   5      17.254  -2.997  22.535  0.00  0.00    +0.002 C 
BRANCH  22  24
ATOM     24  CG1 ILE A   5      14.810  -3.588  22.880  0.00  0.00    +0.002 C 
ATOM     25  CD1 ILE A   5      14.183  -2.213  22.690  0.00  0.00    +0.000 C 
ENDBRANCH  22  24
ENDBRANCH  10  22
ENDBRANCH   7  10
ENDBRANCH   5   6
BRANCH   5  26
ATOM     26  CB  ILE A   4      13.232  -5.448  17.240  0.00  0.00    +0.027 C 
ATOM     27  CG2 ILE A   4      13.173  -4.238  16.326  0.00  0.00    +0.002 C 
BRANCH  26  28
ATOM     28  CG1 ILE A   4      14.628  -6.075  17.189  0.00  0.00    +0.002 C 
ATOM     29  CD1 ILE A   4      15.031  -6.551  15.808  0.00  0.00    +0.000 C 
ENDBRANCH  26  28
ENDBRANCH   5  26
ENDBRANCH   3   5
BRANCH   1  30
ATOM     30  CA  PHE A   3       9.404  -4.172  19.978  0.00  0.00    +0.153 C 
BRANCH  30  32
ATOM     31  C   SER A   2       7.769  -5.271  21.432  0.00  0.00    +0.243 C 
ATOM     32  N   PHE A   3       8.836  -4.487  21.287  0.00  0.00    -0.297 N 
ATOM     33  H   PHE A   3       9.281  -4.084  22.136  0.00  0.00    +0.150 HD
ATOM     34  O   SER A   2       7.168  -5.767  20.466  0.00  0.00    -0.273 OA
BRANCH  31  35
ATOM     35  CA  SER A   2       7.281  -5.500  22.877  0.00  0.00    +0.178 C 
BRANCH  35  37
ATOM     36  C   SER A   1       9.326  -5.609  24.236  0.00  0.00    +0.241 C 
ATOM     37  N   SER A   2       8.261  -4.934  23.808  0.00  0.00    -0.295 N 
ATOM     38  H   SER A   2       8.118  -3.962  24.150  0.00  0.00    +0.150 HD
ATOM     39  O   SER A   1       9.645  -6.689  23.788  0.00  0.00    -0.274 OA
BRANCH  36  40
ATOM     40  CA  SER A   1      10.268  -4.827  25.152  0.00  0.00    +0.174 C 
BRANCH  40  41
ATOM     41  N   SER A   1      10.834  -5.423  26.348  0.00  0.00    -0.236 NA
ATOM     42  H   SER A   1      11.835  -5.706  26.342  0.00  0.00    +0.142 HD
ENDBRANCH  40  41
BRANCH  40  43
ATOM     43  CB  SER A   1      11.391  -4.208  24.326  0.00  0.00    +0.163 C 
BRANCH  43  44
ATOM     44  OG  SER A   1      10.875  -3.275  23.393  0.00  0.00    -0.380 OA
ATOM     45  H   SER A   1      10.400  -2.554  23.877  0.00  0.00    +0.211 HD
ENDBRANCH  43  44
ENDBRANCH  40  43
ENDBRANCH  36  40
ENDBRANCH  35  37
BRANCH  35  46
ATOM     46  CB  SER A   2       5.899  -4.842  23.060  0.00  0.00    +0.166 C 
BRANCH  46  47
ATOM     47  OG  SER A   2       5.424  -4.953  24.396  0.00  0.00    -0.380 OA
ATOM     48  H   SER A   2       6.061  -4.508  25.009  0.00  0.00    +0.211 HD
ENDBRANCH  46  47
ENDBRANCH  35  46
ENDBRANCH  31  35
ENDBRANCH  30  32
BRANCH  30  49
ATOM     49  CB  PHE A   3       9.169  -2.701  19.643  0.00  0.00    +0.055 C 
BRANCH  49  50
ATOM     50  CG  PHE A   3       7.737  -2.288  19.765  0.00  0.00    -0.020 A 
ATOM     51  CD2 PHE A   3       7.233  -1.833  20.978  0.00  0.00    -0.004 A 
ATOM     52  CE2 PHE A   3       5.891  -1.494  21.114  0.00  0.00    -0.000 A 
ATOM     53  CZ  PHE A   3       5.039  -1.606  20.030  0.00  0.00    -0.000 A 
ATOM     54  CE1 PHE A   3       5.533  -2.056  18.808  0.00  0.00    -0.000 A 
ATOM     55  CD1 PHE A   3       6.878  -2.394  18.682  0.00  0.00    -0.004 A 
ENDBRANCH  49  50
ENDBRANCH  30  49
ENDBRANCH   1  30
TORSDOF 24
REMARK  Name = ../refined-set-2016/1lpg/1lpg_pocket.pdb
REMARK  230 active torsions:
REMARK  status: ('A' for Active; 'I' for Inactive)
REMARK    1  A    between atoms: _1  and  _5
REMARK    2  A    between atoms: _5  and  _6
REMARK    3  A    between atoms: _5  and  _8
REMARK    4  A    between atoms: _8  and  _9
REMARK    5  A    between atoms: _12  and  _14
REMARK    6  A    between atoms: _14  and  _15
REMARK    7  A    between atoms: _14  and  _17
REMARK    8  A    between atoms: _20  and  _22
REMARK    9  A    between atoms: _22  and  _23
REMARK   10  A    between atoms: _22  and  _25
REMARK   11  A    between atoms: _25  and  _26
REMARK   12  A    between atoms: _31  and  _33
REMARK   13  A    between atoms: _33  and  _34
REMARK   14  A    between atoms: _33  and  _36
REMARK   15  A    between atoms: _36  and  _37
REMARK   16  A    between atoms: _37  and  _38
REMARK   17  A    between atoms: _43  and  _45
REMARK   18  A    between atoms: _45  and  _46
REMARK   19  A    between atoms: _45  and  _48
REMARK   20  A    between atoms: _48  and  _49
REMARK   21  A    between atoms: _55  and  _57
REMARK   22  A    between atoms: _57  and  _58
REMARK   23  A    between atoms: _57  and  _60
REMARK   24  A    between atoms: _60  and  _61
REMARK   25  A    between atoms: _64  and  _66
REMARK   26  A    between atoms: _66  and  _67
REMARK   27  A    between atoms: _66  and  _69
REMARK   28  A    between atoms: _69  and  _70
REMARK   29  A    between atoms: _70  and  _71
REMARK   30  A    between atoms: _71  and  _72
REMARK   31  A    between atoms: _72  and  _73
REMARK   32  A    between atoms: _77  and  _79
REMARK   33  A    between atoms: _79  and  _80
REMARK   34  A    between atoms: _79  and  _82
REMARK   35  A    between atoms: _82  and  _83
REMARK   36  A    between atoms: _83  and  _84
REMARK   37  A    between atoms: _87  and  _89
REMARK   38  A    between atoms: _89  and  _90
REMARK   39  A    between atoms: _89  and  _92
REMARK   40  A    between atoms: _92  and  _93
REMARK   41  A    between atoms: _96  and  _98
REMARK   42  A    between atoms: _98  and  _99
REMARK   43  A    between atoms: _98  and  _101
REMARK   44  A    between atoms: _101  and  _102
REMARK   45  A    between atoms: _107  and  _108
REMARK   46  A    between atoms: _110  and  _112
REMARK   47  A    between atoms: _112  and  _113
REMARK   48  A    between atoms: _112  and  _115
REMARK   49  A    between atoms: _115  and  _116
REMARK   50  A    between atoms: _119  and  _121
REMARK   51  A    between atoms: _121  and  _122
REMARK   52  A    between atoms: _121  and  _124
REMARK   53  A    between atoms: _124  and  _125
REMARK   54  A    between atoms: _128  and  _130
REMARK   55  A    between atoms: _130  and  _131
REMARK   56  A    between atoms: _130  and  _133
REMARK   57  A    between atoms: _136  and  _138
REMARK   58  A    between atoms: _138  and  _139
REMARK   59  A    between atoms: _141  and  _143
REMARK   60  A    between atoms: _143  and  _144
REMARK   61  A    between atoms: _143  and  _146
REMARK   62  A    between atoms: _146  and  _147
REMARK   63  A    between atoms: _147  and  _148
REMARK   64  A    between atoms: _148  and  _149
REMARK   65  A    between atoms: _158  and  _160
REMARK   66  A    between atoms: _160  and  _161
REMARK   67  A    between atoms: _160  and  _163
REMARK   68  A    between atoms: _163  and  _164
REMARK   69  A    between atoms: _167  and  _169
REMARK   70  A    between atoms: _169  and  _170
REMARK   71  A    between atoms: _169  and  _172
REMARK   72  A    between atoms: _172  and  _173
REMARK   73  A    between atoms: _178  and  _180
REMARK   74  A    between atoms: _180  and  _181
REMARK   75  A    between atoms: _180  and  _183
REMARK   76  A    between atoms: _183  and  _184
REMARK   77  A    between atoms: _184  and  _185
REMARK   78  A    between atoms: _188  and  _190
REMARK   79  A    between atoms: _190  and  _191
REMARK   80  A    between atoms: _190  and  _193
REMARK   81  A    between atoms: _193  and  _194
REMARK   82  A    between atoms: _194  and  _195
REMARK   83  A    between atoms: _195  and  _196
REMARK   84  A    between atoms: _196  and  _197
REMARK   85  A    between atoms: _201  and  _203
REMARK   86  A    between atoms: _203  and  _204
REMARK   87  A    between atoms: _206  and  _208
REMARK   88  A    between atoms: _208  and  _209
REMARK   89  A    between atoms: _208  and  _211
REMARK   90  A    between atoms: _211  and  _212
REMARK   91  A    between atoms: _212  and  _213
REMARK   92  A    between atoms: _213  and  _214
REMARK   93  A    between atoms: _223  and  _225
REMARK   94  A    between atoms: _225  and  _226
REMARK   95  A    between atoms: _225  and  _228
REMARK   96  A    between atoms: _228  and  _229
REMARK   97  A    between atoms: _229  and  _230
REMARK   98  A    between atoms: _235  and  _237
REMARK   99  A    between atoms: _237  and  _238
REMARK  100  A    between atoms: _237  and  _240
REMARK  101  A    between atoms: _240  and  _241
REMARK  102  A    between atoms: _244  and  _246
REMARK  103  A    between atoms: _246  and  _247
REMARK  104  A    between atoms: _246  and  _249
REMARK  105  A    between atoms: _252  and  _254
REMARK  106  A    between atoms: _254  and  _255
REMARK  107  A    between atoms: _254  and  _257
REMARK  108  A    between atoms: _257  and  _258
REMARK  109  A    between atoms: _260  and  _262
REMARK  110  A    between atoms: _262  and  _263
REMARK  111  A    between atoms: _262  and  _265
REMARK  112  A    between atoms: _265  and  _266
REMARK  113  A    between atoms: _268  and  _270
REMARK  114  A    between atoms: _270  and  _271
REMARK  115  A    between atoms: _270  and  _273
REMARK  116  A    between atoms: _273  and  _274
REMARK  117  A    between atoms: _280  and  _282
REMARK  118  A    between atoms: _282  and  _283
REMARK  119  A    between atoms: _282  and  _285
REMARK  120  A    between atoms: _285  and  _286
REMARK  121  A    between atoms: _289  and  _291
REMARK  122  A    between atoms: _291  and  _292
REMARK  123  A    between atoms: _291  and  _294
REMARK  124  A    between atoms: _294  and  _295
REMARK  125  A    between atoms: _298  and  _300
REMARK  126  A    between atoms: _300  and  _301
REMARK  127  A    between atoms: _300  and  _303
REMARK  128  A    between atoms: _303  and  _304
REMARK  129  A    between atoms: _307  and  _309
REMARK  130  A    between atoms: _309  and  _310
REMARK  131  A    between atoms: _309  and  _312
REMARK  132  A    between atoms: _312  and  _313
REMARK  133  A    between atoms: _313  and  _314
REMARK  134  A    between atoms: _316  and  _318
REMARK  135  A    between atoms: _318  and  _319
REMARK  136  A    between atoms: _318  and  _321
REMARK  137  A    between atoms: _323  and  _325
REMARK  138  A    between atoms: _325  and  _326
REMARK  139  A    between atoms: _329  and  _331
REMARK  140  A    between atoms: _331  and  _332
REMARK  141  A    between atoms: _334  and  _336
REMARK  142  A    between atoms: _336  and  _337
REMARK  143  A    between atoms: _336  and  _339
REMARK  144  A    between atoms: _339  and  _340
REMARK  145  A    between atoms: _340  and  _341
REMARK  146  A    between atoms: _344  and  _346
REMARK  147  A    between atoms: _346  and  _347
REMARK  148  A    between atoms: _346  and  _349
REMARK  149  A    between atoms: _349  and  _350
REMARK  150  A    between atoms: _353  and  _355
REMARK  151  A    between atoms: _355  and  _356
REMARK  152  A    between atoms: _359  and  _361
REMARK  153  A    between atoms: _361  and  _362
REMARK  154  A    between atoms: _361  and  _364
REMARK  155  A    between atoms: _364  and  _365
REMARK  156  A    between atoms: _365  and  _468
REMARK  157  A    between atoms: _366  and  _368
REMARK  158  A    between atoms: _368  and  _369
REMARK  159  A    between atoms: _368  and  _371
REMARK  160  A    between atoms: _371  and  _372
REMARK  161  A    between atoms: _372  and  _373
REMARK  162  A    between atoms: _378  and  _380
REMARK  163  A    between atoms: _380  and  _381
REMARK  164  A    between atoms: _383  and  _385
REMARK  165  A    between atoms: _385  and  _386
REMARK  166  A    between atoms: _385  and  _388
REMARK  167  A    between atoms: _388  and  _389
REMARK  168  A    between atoms: _392  and  _394
REMARK  169  A    between atoms: _394  and  _395
REMARK  170  A    between atoms: _394  and  _397
REMARK  171  A    between atoms: _397  and  _398
REMARK  172  A    between atoms: _400  and  _402
REMARK  173  A    between atoms: _402  and  _403
REMARK  174  A    between atoms: _405  and  _407
REMARK  175  A    between atoms: _407  and  _408
REMARK  176  A    between atoms: _410  and  _412
REMARK  177  A    between atoms: _412  and  _413
REMARK  178  A    between atoms: _412  and  _415
REMARK  179  A    between atoms: _418  and  _420
REMARK  180  A    between atoms: _420  and  _421
REMARK  181  A    between atoms: _420  and  _423
REMARK  182  A    between atoms: _423  and  _424
REMARK  183  A    between atoms: _426  and  _428
REMARK  184  A    between atoms: _428  and  _429
REMARK  185  A    between atoms: _428  and  _431
REMARK  186  A    between atoms: _431  and  _432
REMARK  187  A    between atoms: _442  and  _444
REMARK  188  A    between atoms: _444  and  _445
REMARK  189  A    between atoms: _447  and  _449
REMARK  190  A    between atoms: _449  and  _450
REMARK  191  A    between atoms: _449  and  _452
REMARK  192  A    between atoms: _452  and  _453
REMARK  193  A    between atoms: _453  and  _454
REMARK  194  A    between atoms: _457  and  _459
REMARK  195  A    between atoms: _459  and  _460
REMARK  196  A    between atoms: _462  and  _464
REMARK  197  A    between atoms: _464  and  _465
REMARK  198  A    between atoms: _464  and  _467
REMARK  199  A    between atoms: _467  and  _468
REMARK  200  A    between atoms: _469  and  _471
REMARK  201  A    between atoms: _471  and  _472
REMARK  202  A    between atoms: _475  and  _477
REMARK  203  A    between atoms: _477  and  _478
REMARK  204  A    between atoms: _477  and  _480
REMARK  205  A    between atoms: _480  and  _481
REMARK  206  A    between atoms: _481  and  _482
REMARK  207  A    between atoms: _482  and  _483
REMARK  208  A    between atoms: _492  and  _494
REMARK  209  A    between atoms: _494  and  _495
REMARK  210  A    between atoms: _494  and  _497
REMARK  211  A    between atoms: _497  and  _498
REMARK  212  A    between atoms: _498  and  _499
REMARK  213  A    between atoms: _499  and  _500
REMARK  214  A    between atoms: _500  and  _501
REMARK  215  A    between atoms: _505  and  _507
REMARK  216  A    between atoms: _507  and  _508
REMARK  217  A    between atoms: _507  and  _510
REMARK  218  A    between atoms: _510  and  _511
REMARK  219  A    between atoms: _516  and  _517
REMARK  220  A    between atoms: _519  and  _521
REMARK  221  A    between atoms: _521  and  _522
REMARK  222  A    between atoms: _524  and  _526
REMARK  223  A    between atoms: _526  and  _527
REMARK  224  A    between atoms: _526  and  _529
REMARK  225  A    between atoms: _529  and  _530
REMARK  226  A    between atoms: _533  and  _535
REMARK  227  A    between atoms: _535  and  _536
REMARK  228  A    between atoms: _535  and  _538
REMARK  229  A    between atoms: _538  and  _539
REMARK  230  A    between atoms: _544  and  _545
REMARK                            x       y       z     vdW  Elec       q    Type
REMARK                         _______ _______ _______ _____ _____    ______ ____
ROOT
ATOM      1  CA  MET A   1      19.634   0.999  21.133  0.00  0.00    +0.134 C 
ENDROOT
BRANCH   1   2
ATOM      2  N   MET A   1      20.461   0.501  20.031  0.00  0.00    -0.239 NA
ATOM      3  H   MET A   1      20.635  -0.522  19.960  0.00  0.00    +0.142 HD
ENDBRANCH   1   2
BRANCH   1   4
ATOM      4  C   MET A   1      20.077   0.387  22.454  0.00  0.00    +0.224 C 
ATOM      5  O   MET A   1      20.796  -0.596  22.470  0.00  0.00    -0.287 OA
ENDBRANCH   1   4
BRANCH   1   6
ATOM      6  CB  MET A   1      18.157   0.634  20.934  0.00  0.00    +0.037 C 
BRANCH   6   7
ATOM      7  CG  MET A   1      17.602   0.837  19.552  0.00  0.00    +0.059 C 
BRANCH   7   8
ATOM      8  SD  MET A   1      15.950   0.125  19.440  0.00  0.00    -0.139 S 
ATOM      9  CE  MET A   1      15.574   0.427  17.740  0.00  0.00    +0.069 C 
ENDBRANCH   7   8
ENDBRANCH   6   7
ENDBRANCH   1   6
TORSDOF 5
REMARK  Name = ../refined-set-2016/1lpg/1lpg_pocket.pdb
REMARK  230 active torsions:
REMARK  status: ('A' for Active; 'I' for Inactive)
REMARK    1  A    between atoms: _1  and  _5
REMARK    2  A    between atoms: _5  and  _6
REMARK    3  A    between atoms: _5  and  _8
REMARK    4  A    between atoms: _8  and  _9
REMARK    5  A    between atoms: _12  and  _14
REMARK    6  A    between atoms: _14  and  _15
REMARK    7  A    between atoms: _14  and  _17
REMARK    8  A    between atoms: _20  and  _22
REMARK    9  A    between atoms: _22  and  _23
REMARK   10  A    between atoms: _22  and  _25
REMARK   11  A    between atoms: _25  and  _26
REMARK   12  A    between atoms: _31  and  _33
REMARK   13  A    between atoms: _33  and  _34
REMARK   14  A    between atoms: _33  and  _36
REMARK   15  A    between atoms: _36  and  _37
REMARK   16  A    between atoms: _37  and  _38
REMARK   17  A    between atoms: _43  and  _45
REMARK   18  A    between atoms: _45  and  _46
REMARK   19  A    between atoms: _45  and  _48
REMARK   20  A    between atoms: _48  and  _49
REMARK   21  A    between atoms: _55  and  _57
REMARK   22  A    between atoms: _57  and  _58
REMARK   23  A    between atoms: _57  and  _60
REMARK   24  A    between atoms: _60  and  _61
REMARK   25  A    between atoms: _64  and  _66
REMARK   26  A    between atoms: _66  and  _67
REMARK   27  A    between atoms: _66  and  _69
REMARK   28  A    between atoms: _69  and  _70
REMARK   29  A    between atoms: _70  and  _71
REMARK   30  A    between atoms: _71  and  _72
REMARK   31  A    between atoms: _72  and  _73
REMARK   32  A    between atoms: _77  and  _79
REMARK   33  A    between atoms: _79  and  _80
REMARK   34  A    between atoms: _79  and  _82
REMARK   35  A    between atoms: _82  and  _83
REMARK   36  A    between atoms: _83  and  _84
REMARK   37  A    between atoms: _87  and  _89
REMARK   38  A    between atoms: _89  and  _90
REMARK   39  A    between atoms: _89  and  _92
REMARK   40  A    between atoms: _92  and  _93
REMARK   41  A    between atoms: _96  and  _98
REMARK   42  A    between atoms: _98  and  _99
REMARK   43  A    between atoms: _98  and  _101
REMARK   44  A    between atoms: _101  and  _102
REMARK   45  A    between atoms: _107  and  _108
REMARK   46  A    between atoms: _110  and  _112
REMARK   47  A    between atoms: _112  and  _113
REMARK   48  A    between atoms: _112  and  _115
REMARK   49  A    between atoms: _115  and  _116
REMARK   50  A    between atoms: _119  and  _121
REMARK   51  A    between atoms: _121  and  _122
REMARK   52  A    between atoms: _121  and  _124
REMARK   53  A    between atoms: _124  and  _125
REMARK   54  A    between atoms: _128  and  _130
REMARK   55  A    between atoms: _130  and  _131
REMARK   56  A    between atoms: _130  and  _133
REMARK   57  A    between atoms: _136  and  _138
REMARK   58  A    between atoms: _138  and  _139
REMARK   59  A    between atoms: _141  and  _143
REMARK   60  A    between atoms: _143  and  _144
REMARK   61  A    between atoms: _143  and  _146
REMARK   62  A    between atoms: _146  and  _147
REMARK   63  A    between atoms: _147  and  _148
REMARK   64  A    between atoms: _148  and  _149
REMARK   65  A    between atoms: _158  and  _160
REMARK   66  A    between atoms: _160  and  _161
REMARK   67  A    between atoms: _160  and  _163
REMARK   68  A    between atoms: _163  and  _164
REMARK   69  A    between atoms: _167  and  _169
REMARK   70  A    between atoms: _169  and  _170
REMARK   71  A    between atoms: _169  and  _172
REMARK   72  A    between atoms: _172  and  _173
REMARK   73  A    between atoms: _178  and  _180
REMARK   74  A    between atoms: _180  and  _181
REMARK   75  A    between atoms: _180  and  _183
REMARK   76  A    between atoms: _183  and  _184
REMARK   77  A    between atoms: _184  and  _185
REMARK   78  A    between atoms: _188  and  _190
REMARK   79  A    between atoms: _190  and  _191
REMARK   80  A    between atoms: _190  and  _193
REMARK   81  A    between atoms: _193  and  _194
REMARK   82  A    between atoms: _194  and  _195
REMARK   83  A    between atoms: _195  and  _196
REMARK   84  A    between atoms: _196  and  _197
REMARK   85  A    between atoms: _201  and  _203
REMARK   86  A    between atoms: _203  and  _204
REMARK   87  A    between atoms: _206  and  _208
REMARK   88  A    between atoms: _208  and  _209
REMARK   89  A    between atoms: _208  and  _211
REMARK   90  A    between atoms: _211  and  _212
REMARK   91  A    between atoms: _212  and  _213
REMARK   92  A    between atoms: _213  and  _214
REMARK   93  A    between atoms: _223  and  _225
REMARK   94  A    between atoms: _225  and  _226
REMARK   95  A    between atoms: _225  and  _228
REMARK   96  A    between atoms: _228  and  _229
REMARK   97  A    between atoms: _229  and  _230
REMARK   98  A    between atoms: _235  and  _237
REMARK   99  A    between atoms: _237  and  _238
REMARK  100  A    between atoms: _237  and  _240
REMARK  101  A    between atoms: _240  and  _241
REMARK  102  A    between atoms: _244  and  _246
REMARK  103  A    between atoms: _246  and  _247
REMARK  104  A    between atoms: _246  and  _249
REMARK  105  A    between atoms: _252  and  _254
REMARK  106  A    between atoms: _254  and  _255
REMARK  107  A    between atoms: _254  and  _257
REMARK  108  A    between atoms: _257  and  _258
REMARK  109  A    between atoms: _260  and  _262
REMARK  110  A    between atoms: _262  and  _263
REMARK  111  A    between atoms: _262  and  _265
REMARK  112  A    between atoms: _265  and  _266
REMARK  113  A    between atoms: _268  and  _270
REMARK  114  A    between atoms: _270  and  _271
REMARK  115  A    between atoms: _270  and  _273
REMARK  116  A    between atoms: _273  and  _274
REMARK  117  A    between atoms: _280  and  _282
REMARK  118  A    between atoms: _282  and  _283
REMARK  119  A    between atoms: _282  and  _285
REMARK  120  A    between atoms: _285  and  _286
REMARK  121  A    between atoms: _289  and  _291
REMARK  122  A    between atoms: _291  and  _292
REMARK  123  A    between atoms: _291  and  _294
REMARK  124  A    between atoms: _294  and  _295
REMARK  125  A    between atoms: _298  and  _300
REMARK  126  A    between atoms: _300  and  _301
REMARK  127  A    between atoms: _300  and  _303
REMARK  128  A    between atoms: _303  and  _304
REMARK  129  A    between atoms: _307  and  _309
REMARK  130  A    between atoms: _309  and  _310
REMARK  131  A    between atoms: _309  and  _312
REMARK  132  A    between atoms: _312  and  _313
REMARK  133  A    between atoms: _313  and  _314
REMARK  134  A    between atoms: _316  and  _318
REMARK  135  A    between atoms: _318  and  _319
REMARK  136  A    between atoms: _318  and  _321
REMARK  137  A    between atoms: _323  and  _325
REMARK  138  A    between atoms: _325  and  _326
REMARK  139  A    between atoms: _329  and  _331
REMARK  140  A    between atoms: _331  and  _332
REMARK  141  A    between atoms: _334  and  _336
REMARK  142  A    between atoms: _336  and  _337
REMARK  143  A    between atoms: _336  and  _339
REMARK  144  A    between atoms: _339  and  _340
REMARK  145  A    between atoms: _340  and  _341
REMARK  146  A    between atoms: _344  and  _346
REMARK  147  A    between atoms: _346  and  _347
REMARK  148  A    between atoms: _346  and  _349
REMARK  149  A    between atoms: _349  and  _350
REMARK  150  A    between atoms: _353  and  _355
REMARK  151  A    between atoms: _355  and  _356
REMARK  152  A    between atoms: _359  and  _361
REMARK  153  A    between atoms: _361  and  _362
REMARK  154  A    between atoms: _361  and  _364
REMARK  155  A    between atoms: _364  and  _365
REMARK  156  A    between atoms: _365  and  _468
REMARK  157  A    between atoms: _366  and  _368
REMARK  158  A    between atoms: _368  and  _369
REMARK  159  A    between atoms: _368  and  _371
REMARK  160  A    between atoms: _371  and  _372
REMARK  161  A    between atoms: _372  and  _373
REMARK  162  A    between atoms: _378  and  _380
REMARK  163  A    between atoms: _380  and  _381
REMARK  164  A    between atoms: _383  and  _385
REMARK  165  A    between atoms: _385  and  _386
REMARK  166  A    between atoms: _385  and  _388
REMARK  167  A    between atoms: _388  and  _389
REMARK  168  A    between atoms: _392  and  _394
REMARK  169  A    between atoms: _394  and  _395
REMARK  170  A    between atoms: _394  and  _397
REMARK  171  A    between atoms: _397  and  _398
REMARK  172  A    between atoms: _400  and  _402
REMARK  173  A    between atoms: _402  and  _403
REMARK  174  A    between atoms: _405  and  _407
REMARK  175  A    between atoms: _407  and  _408
REMARK  176  A    between atoms: _410  and  _412
REMARK  177  A    between atoms: _412  and  _413
REMARK  178  A    between atoms: _412  and  _415
REMARK  179  A    between atoms: _418  and  _420
REMARK  180  A    between atoms: _420  and  _421
REMARK  181  A    between atoms: _420  and  _423
REMARK  182  A    between atoms: _423  and  _424
REMARK  183  A    between atoms: _426  and  _428
REMARK  184  A    between atoms: _428  and  _429
REMARK  185  A    between atoms: _428  and  _431
REMARK  186  A    between atoms: _431  and  _432
REMARK  187  A    between atoms: _442  and  _444
REMARK  188  A    between atoms: _444  and  _445
REMARK  189  A    between atoms: _447  and  _449
REMARK  190  A    between atoms: _449  and  _450
REMARK  191  A    between atoms: _449  and  _452
REMARK  192  A    between atoms: _452  and  _453
REMARK  193  A    between atoms: _453  and  _454
REMARK  194  A    between atoms: _457  and  _459
REMARK  195  A    between atoms: _459  and  _460
REMARK  196  A    between atoms: _462  and  _464
REMARK  197  A    between atoms: _464  and  _465
REMARK  198  A    between atoms: _464  and  _467
REMARK  199  A    between atoms: _467  and  _468
REMARK  200  A    between atoms: _469  and  _471
REMARK  201  A    between atoms: _471  and  _472
REMARK  202  A    between atoms: _475  and  _477
REMARK  203  A    between atoms: _477  and  _478
REMARK  204  A    between atoms: _477  and  _480
REMARK  205  A    between atoms: _480  and  _481
REMARK  206  A    between atoms: _481  and  _482
REMARK  207  A    between atoms: _482  and  _483
REMARK  208  A    between atoms: _492  and  _494
REMARK  209  A    between atoms: _494  and  _495
REMARK  210  A    between atoms: _494  and  _497
REMARK  211  A    between atoms: _497  and  _498
REMARK  212  A    between atoms: _498  and  _499
REMARK  213  A    between atoms: _499  and  _500
REMARK  214  A    between atoms: _500  and  _501
REMARK  215  A    between atoms: _505  and  _507
REMARK  216  A    between atoms: _507  and  _508
REMARK  217  A    between atoms: _507  and  _510
REMARK  218  A    between atoms: _510  and  _511
REMARK  219  A    between atoms: _516  and  _517
REMARK  220  A    between atoms: _519  and  _521
REMARK  221  A    between atoms: _521  and  _522
REMARK  222  A    between atoms: _524  and  _526
REMARK  223  A    between atoms: _526  and  _527
REMARK  224  A    between atoms: _526  and  _529
REMARK  225  A    between atoms: _529  and  _530
REMARK  226  A    between atoms: _533  and  _535
REMARK  227  A    between atoms: _535  and  _536
REMARK  228  A    between atoms: _535  and  _538
REMARK  229  A    between atoms: _538  and  _539
REMARK  230  A    between atoms: _544  and  _545
REMARK                            x       y       z     vdW  Elec       q    Type
REMARK                         _______ _______ _______ _____ _____    ______ ____
ROOT
ATOM      1  C   CYS A   1      18.138   1.508  29.046  0.00  0.00    +0.239 C 
ATOM      2  N   ALA A   2      17.354   2.412  29.622  0.00  0.00    -0.297 N 
ATOM      3  H   ALA A   2      16.419   2.606  29.209  0.00  0.00    +0.150 HD
ATOM      4  O   CYS A   1      19.234   1.168  29.510  0.00  0.00    -0.274 OA
ENDROOT
BRANCH   2   5
ATOM      5  CA  ALA A   2      17.764   3.137  30.812  0.00  0.00    +0.149 C 
ATOM      6  CB  ALA A   2      18.563   4.394  30.453  0.00  0.00    +0.031 C 
BRANCH   5   7
ATOM      7  C   ALA A   2      16.488   3.510  31.529  0.00  0.00    +0.241 C 
ATOM      8  N   GLY A   3      16.521   3.462  32.849  0.00  0.00    -0.296 N 
ATOM      9  H   GLY A   3      17.386   3.172  33.349  0.00  0.00    +0.150 HD
ATOM     10  O   ALA A   2      15.450   3.729  30.897  0.00  0.00    -0.273 OA
BRANCH   8  11
ATOM     11  CA  GLY A   3      15.331   3.820  33.582  0.00  0.00    +0.163 C 
BRANCH  11  12
ATOM     12  C   GLY A   3      15.086   2.946  34.784  0.00  0.00    +0.229 C 
ATOM     13  O   GLY A   3      16.020   2.387  35.376  0.00  0.00    -0.286 OA
ENDBRANCH  11  12
ENDBRANCH   8  11
ENDBRANCH   5   7
ENDBRANCH   2   5
BRANCH   1  14
ATOM     14  CA  CYS A   1      17.547   0.791  27.844  0.00  0.00    +0.156 C 
BRANCH  14  15
ATOM     15  N   CYS A   1      18.582   0.384  26.892  0.00  0.00    -0.237 NA
ATOM     16  H   CYS A   1      19.123  -0.484  27.081  0.00  0.00    +0.142 HD
ENDBRANCH  14  15
BRANCH  14  17
ATOM     17  CB  CYS A   1      16.818  -0.435  28.404  0.00  0.00    +0.095 C 
ATOM     18  SG  CYS A   1      15.554  -1.242  27.377  0.00  0.00    -0.080 S 
ENDBRANCH  14  17
ENDBRANCH   1  14
TORSDOF 7
REMARK  Name = ../refined-set-2016/1lpg/1lpg_pocket.pdb
REMARK  230 active torsions:
REMARK  status: ('A' for Active; 'I' for Inactive)
REMARK    1  A    between atoms: _1  and  _5
REMARK    2  A    between atoms: _5  and  _6
REMARK    3  A    between atoms: _5  and  _8
REMARK    4  A    between atoms: _8  and  _9
REMARK    5  A    between atoms: _12  and  _14
REMARK    6  A    between atoms: _14  and  _15
REMARK    7  A    between atoms: _14  and  _17
REMARK    8  A    between atoms: _20  and  _22
REMARK    9  A    between atoms: _22  and  _23
REMARK   10  A    between atoms: _22  and  _25
REMARK   11  A    between atoms: _25  and  _26
REMARK   12  A    between atoms: _31  and  _33
REMARK   13  A    between atoms: _33  and  _34
REMARK   14  A    between atoms: _33  and  _36
REMARK   15  A    between atoms: _36  and  _37
REMARK   16  A    between atoms: _37  and  _38
REMARK   17  A    between atoms: _43  and  _45
REMARK   18  A    between atoms: _45  and  _46
REMARK   19  A    between atoms: _45  and  _48
REMARK   20  A    between atoms: _48  and  _49
REMARK   21  A    between atoms: _55  and  _57
REMARK   22  A    between atoms: _57  and  _58
REMARK   23  A    between atoms: _57  and  _60
REMARK   24  A    between atoms: _60  and  _61
REMARK   25  A    between atoms: _64  and  _66
REMARK   26  A    between atoms: _66  and  _67
REMARK   27  A    between atoms: _66  and  _69
REMARK   28  A    between atoms: _69  and  _70
REMARK   29  A    between atoms: _70  and  _71
REMARK   30  A    between atoms: _71  and  _72
REMARK   31  A    between atoms: _72  and  _73
REMARK   32  A    between atoms: _77  and  _79
REMARK   33  A    between atoms: _79  and  _80
REMARK   34  A    between atoms: _79  and  _82
REMARK   35  A    between atoms: _82  and  _83
REMARK   36  A    between atoms: _83  and  _84
REMARK   37  A    between atoms: _87  and  _89
REMARK   38  A    between atoms: _89  and  _90
REMARK   39  A    between atoms: _89  and  _92
REMARK   40  A    between atoms: _92  and  _93
REMARK   41  A    between atoms: _96  and  _98
REMARK   42  A    between atoms: _98  and  _99
REMARK   43  A    between atoms: _98  and  _101
REMARK   44  A    between atoms: _101  and  _102
REMARK   45  A    between atoms: _107  and  _108
REMARK   46  A    between atoms: _110  and  _112
REMARK   47  A    between atoms: _112  and  _113
REMARK   48  A    between atoms: _112  and  _115
REMARK   49  A    between atoms: _115  and  _116
REMARK   50  A    between atoms: _119  and  _121
REMARK   51  A    between atoms: _121  and  _122
REMARK   52  A    between atoms: _121  and  _124
REMARK   53  A    between atoms: _124  and  _125
REMARK   54  A    between atoms: _128  and  _130
REMARK   55  A    between atoms: _130  and  _131
REMARK   56  A    between atoms: _130  and  _133
REMARK   57  A    between atoms: _136  and  _138
REMARK   58  A    between atoms: _138  and  _139
REMARK   59  A    between atoms: _141  and  _143
REMARK   60  A    between atoms: _143  and  _144
REMARK   61  A    between atoms: _143  and  _146
REMARK   62  A    between atoms: _146  and  _147
REMARK   63  A    between atoms: _147  and  _148
REMARK   64  A    between atoms: _148  and  _149
REMARK   65  A    between atoms: _158  and  _160
REMARK   66  A    between atoms: _160  and  _161
REMARK   67  A    between atoms: _160  and  _163
REMARK   68  A    between atoms: _163  and  _164
REMARK   69  A    between atoms: _167  and  _169
REMARK   70  A    between atoms: _169  and  _170
REMARK   71  A    between atoms: _169  and  _172
REMARK   72  A    between atoms: _172  and  _173
REMARK   73  A    between atoms: _178  and  _180
REMARK   74  A    between atoms: _180  and  _181
REMARK   75  A    between atoms: _180  and  _183
REMARK   76  A    between atoms: _183  and  _184
REMARK   77  A    between atoms: _184  and  _185
REMARK   78  A    between atoms: _188  and  _190
REMARK   79  A    between atoms: _190  and  _191
REMARK   80  A    between atoms: _190  and  _193
REMARK   81  A    between atoms: _193  and  _194
REMARK   82  A    between atoms: _194  and  _195
REMARK   83  A    between atoms: _195  and  _196
REMARK   84  A    between atoms: _196  and  _197
REMARK   85  A    between atoms: _201  and  _203
REMARK   86  A    between atoms: _203  and  _204
REMARK   87  A    between atoms: _206  and  _208
REMARK   88  A    between atoms: _208  and  _209
REMARK   89  A    between atoms: _208  and  _211
REMARK   90  A    between atoms: _211  and  _212
REMARK   91  A    between atoms: _212  and  _213
REMARK   92  A    between atoms: _213  and  _214
REMARK   93  A    between atoms: _223  and  _225
REMARK   94  A    between atoms: _225  and  _226
REMARK   95  A    between atoms: _225  and  _228
REMARK   96  A    between atoms: _228  and  _229
REMARK   97  A    between atoms: _229  and  _230
REMARK   98  A    between atoms: _235  and  _237
REMARK   99  A    between atoms: _237  and  _238
REMARK  100  A    between atoms: _237  and  _240
REMARK  101  A    between atoms: _240  and  _241
REMARK  102  A    between atoms: _244  and  _246
REMARK  103  A    between atoms: _246  and  _247
REMARK  104  A    between atoms: _246  and  _249
REMARK  105  A    between atoms: _252  and  _254
REMARK  106  A    between atoms: _254  and  _255
REMARK  107  A    between atoms: _254  and  _257
REMARK  108  A    between atoms: _257  and  _258
REMARK  109  A    between atoms: _260  and  _262
REMARK  110  A    between atoms: _262  and  _263
REMARK  111  A    between atoms: _262  and  _265
REMARK  112  A    between atoms: _265  and  _266
REMARK  113  A    between atoms: _268  and  _270
REMARK  114  A    between atoms: _270  and  _271
REMARK  115  A    between atoms: _270  and  _273
REMARK  116  A    between atoms: _273  and  _274
REMARK  117  A    between atoms: _280  and  _282
REMARK  118  A    between atoms: _282  and  _283
REMARK  119  A    between atoms: _282  and  _285
REMARK  120  A    between atoms: _285  and  _286
REMARK  121  A    between atoms: _289  and  _291
REMARK  122  A    between atoms: _291  and  _292
REMARK  123  A    between atoms: _291  and  _294
REMARK  124  A    between atoms: _294  and  _295
REMARK  125  A    between atoms: _298  and  _300
REMARK  126  A    between atoms: _300  and  _301
REMARK  127  A    between atoms: _300  and  _303
REMARK  128  A    between atoms: _303  and  _304
REMARK  129  A    between atoms: _307  and  _309
REMARK  130  A    between atoms: _309  and  _310
REMARK  131  A    between atoms: _309  and  _312
REMARK  132  A    between atoms: _312  and  _313
REMARK  133  A    between atoms: _313  and  _314
REMARK  134  A    between atoms: _316  and  _318
REMARK  135  A    between atoms: _318  and  _319
REMARK  136  A    between atoms: _318  and  _321
REMARK  137  A    between atoms: _323  and  _325
REMARK  138  A    between atoms: _325  and  _326
REMARK  139  A    between atoms: _329  and  _331
REMARK  140  A    between atoms: _331  and  _332
REMARK  141  A    between atoms: _334  and  _336
REMARK  142  A    between atoms: _336  and  _337
REMARK  143  A    between atoms: _336  and  _339
REMARK  144  A    between atoms: _339  and  _340
REMARK  145  A    between atoms: _340  and  _341
REMARK  146  A    between atoms: _344  and  _346
REMARK  147  A    between atoms: _346  and  _347
REMARK  148  A    between atoms: _346  and  _349
REMARK  149  A    between atoms: _349  and  _350
REMARK  150  A    between atoms: _353  and  _355
REMARK  151  A    between atoms: _355  and  _356
REMARK  152  A    between atoms: _359  and  _361
REMARK  153  A    between atoms: _361  and  _362
REMARK  154  A    between atoms: _361  and  _364
REMARK  155  A    between atoms: _364  and  _365
REMARK  156  A    between atoms: _365  and  _468
REMARK  157  A    between atoms: _366  and  _368
REMARK  158  A    between atoms: _368  and  _369
REMARK  159  A    between atoms: _368  and  _371
REMARK  160  A    between atoms: _371  and  _372
REMARK  161  A    between atoms: _372  and  _373
REMARK  162  A    between atoms: _378  and  _380
REMARK  163  A    between atoms: _380  and  _381
REMARK  164  A    between atoms: _383  and  _385
REMARK  165  A    between atoms: _385  and  _386
REMARK  166  A    between atoms: _385  and  _388
REMARK  167  A    between atoms: _388  and  _389
REMARK  168  A    between atoms: _392  and  _394
REMARK  169  A    between atoms: _394  and  _395
REMARK  170  A    between atoms: _394  and  _397
REMARK  171  A    between atoms: _397  and  _398
REMARK  172  A    between atoms: _400  and  _402
REMARK  173  A    between atoms: _402  and  _403
REMARK  174  A    between atoms: _405  and  _407
REMARK  175  A    between atoms: _407  and  _408
REMARK  176  A    between atoms: _410  and  _412
REMARK  177  A    between atoms: _412  and  _413
REMARK  178  A    between atoms: _412  and  _415
REMARK  179  A    between atoms: _418  and  _420
REMARK  180  A    between atoms: _420  and  _421
REMARK  181  A    between atoms: _420  and  _423
REMARK  182  A    between atoms: _423  and  _424
REMARK  183  A    between atoms: _426  and  _428
REMARK  184  A    between atoms: _428  and  _429
REMARK  185  A    between atoms: _428  and  _431
REMARK  186  A    between atoms: _431  and  _432
REMARK  187  A    between atoms: _442  and  _444
REMARK  188  A    between atoms: _444  and  _445
REMARK  189  A    between atoms: _447  and  _449
REMARK  190  A    between atoms: _449  and  _450
REMARK  191  A    between atoms: _449  and  _452
REMARK  192  A    between atoms: _452  and  _453
REMARK  193  A    between atoms: _453  and  _454
REMARK  194  A    between atoms: _457  and  _459
REMARK  195  A    between atoms: _459  and  _460
REMARK  196  A    between atoms: _462  and  _464
REMARK  197  A    between atoms: _464  and  _465
REMARK  198  A    between atoms: _464  and  _467
REMARK  199  A    between atoms: _467  and  _468
REMARK  200  A    between atoms: _469  and  _471
REMARK  201  A    between atoms: _471  and  _472
REMARK  202  A    between atoms: _475  and  _477
REMARK  203  A    between atoms: _477  and  _478
REMARK  204  A    between atoms: _477  and  _480
REMARK  205  A    between atoms: _480  and  _481
REMARK  206  A    between atoms: _481  and  _482
REMARK  207  A    between atoms: _482  and  _483
REMARK  208  A    between atoms: _492  and  _494
REMARK  209  A    between atoms: _494  and  _495
REMARK  210  A    between atoms: _494  and  _497
REMARK  211  A    between atoms: _497  and  _498
REMARK  212  A    between atoms: _498  and  _499
REMARK  213  A    between atoms: _499  and  _500
REMARK  214  A    between atoms: _500  and  _501
REMARK  215  A    between atoms: _505  and  _507
REMARK  216  A    between atoms: _507  and  _508
REMARK  217  A    between atoms: _507  and  _510
REMARK  218  A    between atoms: _510  and  _511
REMARK  219  A    between atoms: _516  and  _517
REMARK  220  A    between atoms: _519  and  _521
REMARK  221  A    between atoms: _521  and  _522
REMARK  222  A    between atoms: _524  and  _526
REMARK  223  A    between atoms: _526  and  _527
REMARK  224  A    between atoms: _526  and  _529
REMARK  225  A    between atoms: _529  and  _530
REMARK  226  A    between atoms: _533  and  _535
REMARK  227  A    between atoms: _535  and  _536
REMARK  228  A    between atoms: _535  and  _538
REMARK  229  A    between atoms: _538  and  _539
REMARK  230  A    between atoms: _544  and  _545
REMARK                            x       y       z     vdW  Elec       q    Type
REMARK                         _______ _______ _______ _____ _____    ______ ____
ROOT
ATOM      1  CA  ASP A   7       6.211   6.753  30.083  0.00  0.00    +0.160 C 
ENDROOT
BRANCH   1   2
ATOM      2  N   ASP A   7       5.241   5.979  29.337  0.00  0.00    -0.296 N 
ATOM      3  H   ASP A   7       4.385   5.632  29.815  0.00  0.00    +0.150 HD
ATOM      4  C   GLY A   6       5.427   5.708  28.059  0.00  0.00    +0.243 C 
ATOM      5  O   GLY A   6       6.460   6.031  27.457  0.00  0.00    -0.273 OA
BRANCH   4   6
ATOM      6  CA  GLY A   6       4.349   4.876  27.381  0.00  0.00    +0.176 C 
BRANCH   6   7
ATOM      7  N   GLY A   6       5.016   4.007  26.429  0.00  0.00    -0.295 N 
ATOM      8  C   GLN A   5       5.687   2.930  26.826  0.00  0.00    +0.241 C 
ATOM      9  O   GLN A   5       5.845   2.630  28.007  0.00  0.00    -0.273 OA
ATOM     10  H   GLY A   6       4.968   4.232  25.415  0.00  0.00    +0.150 HD
BRANCH   8  11
ATOM     11  CA  GLN A   5       6.382   2.157  25.719  0.00  0.00    +0.149 C 
BRANCH  11  12
ATOM     12  N   GLN A   5       7.784   2.550  25.742  0.00  0.00    -0.297 N 
ATOM     13  H   GLN A   5       8.414   2.162  26.473  0.00  0.00    +0.150 HD
ATOM     14  C   GLY A   4       8.267   3.396  24.843  0.00  0.00    +0.243 C 
ATOM     15  O   GLY A   4       7.609   3.801  23.882  0.00  0.00    -0.273 OA
BRANCH  14  16
ATOM     16  CA  GLY A   4       9.721   3.774  24.961  0.00  0.00    +0.176 C 
BRANCH  16  17
ATOM     17  N   GLY A   4       9.977   4.609  23.808  0.00  0.00    -0.295 N 
ATOM     18  C   TRP A   3      11.139   5.216  23.651  0.00  0.00    +0.241 C 
ATOM     19  O   TRP A   3      12.046   5.138  24.476  0.00  0.00    -0.273 OA
ATOM     20  H   GLY A   4       9.234   4.733  23.091  0.00  0.00    +0.150 HD
BRANCH  18  21
ATOM     21  CA  TRP A   3      11.287   6.066  22.392  0.00  0.00    +0.153 C 
BRANCH  21  22
ATOM     22  N   TRP A   3      12.678   6.461  22.231  0.00  0.00    -0.297 N 
ATOM     23  H   TRP A   3      13.411   5.979  22.790  0.00  0.00    +0.150 HD
ATOM     24  C   SER A   2      13.032   7.420  21.389  0.00  0.00    +0.243 C 
ATOM     25  O   SER A   2      12.239   7.966  20.632  0.00  0.00    -0.273 OA
BRANCH  24  26
ATOM     26  CA  SER A   2      14.518   7.732  21.306  0.00  0.00    +0.178 C 
BRANCH  26  27
ATOM     27  N   SER A   2      15.136   8.266  22.517  0.00  0.00    -0.295 N 
ATOM     28  H   SER A   2      15.275   7.648  23.342  0.00  0.00    +0.150 HD
ATOM     29  C   VAL A   1      15.524   9.541  22.573  0.00  0.00    +0.238 C 
ATOM     30  O   VAL A   1      15.419  10.311  21.604  0.00  0.00    -0.274 OA
BRANCH  29  31
ATOM     31  CA  VAL A   1      16.201  10.014  23.874  0.00  0.00    +0.145 C 
BRANCH  31  32
ATOM     32  CB  VAL A   1      15.349  11.090  24.585  0.00  0.00    +0.025 C 
ATOM     33  CG2 VAL A   1      16.073  11.638  25.814  0.00  0.00    +0.002 C 
ATOM     34  CG1 VAL A   1      13.972  10.544  24.957  0.00  0.00    +0.002 C 
ENDBRANCH  31  32
BRANCH  31  35
ATOM     35  N   VAL A   1      17.518  10.523  23.509  0.00  0.00    -0.238 NA
ATOM     36  H   VAL A   1      17.802  11.484  23.786  0.00  0.00    +0.142 HD
ENDBRANCH  31  35
ENDBRANCH  29  31
ENDBRANCH  26  27
BRANCH  26  37
ATOM     37  CB  SER A   2      15.296   6.527  20.769  0.00  0.00    +0.166 C 
BRANCH  37  38
ATOM     38  OG  SER A   2      14.890   6.205  19.439  0.00  0.00    -0.380 OA
ATOM     39  H   SER A   2      15.407   5.425  19.117  0.00  0.00    +0.211 HD
ENDBRANCH  37  38
ENDBRANCH  26  37
ENDBRANCH  24  26
ENDBRANCH  21  22
BRANCH  21  40
ATOM     40  CB  TRP A   3      10.789   5.310  21.145  0.00  0.00    +0.057 C 
BRANCH  40  41
ATOM     41  CG  TRP A   3      11.544   4.034  20.842  0.00  0.00    -0.002 A 
ATOM     42  CD2 TRP A   3      11.164   2.694  21.207  0.00  0.00    +0.013 A 
ATOM     43  CE3 TRP A   3      10.074   2.150  21.908  0.00  0.00    +0.001 A 
ATOM     44  CZ3 TRP A   3      10.016   0.769  22.085  0.00  0.00    +0.000 A 
ATOM     45  CH2 TRP A   3      11.023  -0.072  21.573  0.00  0.00    +0.001 A 
ATOM     46  CZ2 TRP A   3      12.098   0.433  20.885  0.00  0.00    +0.017 A 
ATOM     47  CE2 TRP A   3      12.159   1.825  20.710  0.00  0.00    +0.056 A 
ATOM     48  NE1 TRP A   3      13.101   2.596  20.077  0.00  0.00    -0.352 N 
ATOM     49  HE1 TRP A   3      13.960   2.240  19.611  0.00  0.00    +0.166 HD
ATOM     50  CD1 TRP A   3      12.725   3.918  20.159  0.00  0.00    +0.068 A 
ENDBRANCH  40  41
ENDBRANCH  21  40
ENDBRANCH  18  21
ENDBRANCH  16  17
ENDBRANCH  14  16
ENDBRANCH  11  12
BRANCH  11  51
ATOM     51  CB  GLN A   5       6.237   0.647  25.877  0.00  0.00    +0.041 C 
BRANCH  51  52
ATOM     52  CG  GLN A   5       6.800  -0.091  24.684  0.00  0.00    +0.116 C 
BRANCH  52  53
ATOM     53  CD  GLN A   5       6.641  -1.573  24.814  0.00  0.00    +0.365 C 
ATOM     54  OE2 GLN A   5       5.485  -2.032  24.880  0.00  0.00    -0.246 OA
ATOM     55  OE1 GLN A   5       7.673  -2.270  24.864  0.00  0.00    -0.246 OA
ENDBRANCH  52  53
ENDBRANCH  51  52
ENDBRANCH  11  51
ENDBRANCH   8  11
ENDBRANCH   6   7
ENDBRANCH   4   6
ENDBRANCH   1   2
BRANCH   1  56
ATOM     56  C   ASP A   7       6.140   6.297  31.531  0.00  0.00    +0.242 C 
ATOM     57  O   ASP A   7       5.075   6.309  32.137  0.00  0.00    -0.273 OA
ATOM     58  N   SER A   8       7.263   5.804  32.045  0.00  0.00    -0.297 N 
ATOM     59  H   SER A   8       8.111   5.758  31.445  0.00  0.00    +0.150 HD
BRANCH  58  60
ATOM     60  CA  SER A   8       7.348   5.322  33.430  0.00  0.00    +0.149 C 
ATOM     61  CB  SER A   8       7.030   6.448  34.422  0.00  0.00    +0.031 C 
BRANCH  60  62
ATOM     62  C   SER A   8       6.429   4.124  33.668  0.00  0.00    +0.241 C 
ATOM     63  O   SER A   8       5.966   3.898  34.774  0.00  0.00    -0.273 OA
ATOM     64  N   GLY A   9       6.157   3.379  32.604  0.00  0.00    -0.298 N 
ATOM     65  H   GLY A   9       6.567   3.640  31.685  0.00  0.00    +0.150 HD
BRANCH  64  66
ATOM     66  CA  GLY A   9       5.303   2.211  32.690  0.00  0.00    +0.137 C 
BRANCH  66  67
ATOM     67  C   GLY A   9       6.026   1.092  33.407  0.00  0.00    +0.227 C 
ATOM     68  O   GLY A   9       7.172   0.796  33.096  0.00  0.00    -0.286 OA
ENDBRANCH  66  67
BRANCH  66  69
ATOM     69  CB  GLY A   9       4.908   1.750  31.299  0.00  0.00    +0.031 C 
BRANCH  69  70
ATOM     70  CG  GLY A   9       3.594   2.313  30.842  0.00  0.00    +0.045 C 
BRANCH  70  71
ATOM     71  CD  GLY A   9       3.200   1.756  29.500  0.00  0.00    +0.174 C 
BRANCH  71  72
ATOM     72  NE  GLY A   9       2.244   2.642  28.860  0.00  0.00    -0.265 N 
ATOM     73  HE  GLY A   9       2.050   3.558  29.312  0.00  0.00    +0.259 HD
ATOM     74  CZ  GLY A   9       1.604   2.356  27.736  0.00  0.00    +0.342 C 
ATOM     75  NH2 GLY A   9       0.738   3.226  27.231  0.00  0.00    -0.292 N 
ATOM     76 HH21 GLY A   9       0.564   4.129  27.718  0.00  0.00    +0.255 HD
ATOM     77 HH22 GLY A   9       0.234   3.005  26.349  0.00  0.00    +0.255 HD
ATOM     78  NH1 GLY A   9       1.822   1.202  27.120  0.00  0.00    -0.292 N 
ATOM     79 HH11 GLY A   9       2.497   0.519  27.519  0.00  0.00    +0.255 HD
ATOM     80 HH12 GLY A   9       1.318   0.980  26.238  0.00  0.00    +0.255 HD
ENDBRANCH  71  72
ENDBRANCH  70  71
ENDBRANCH  69  70
ENDBRANCH  66  69
ENDBRANCH  64  66
ENDBRANCH  60  62
ENDBRANCH  58  60
ENDBRANCH   1  56
BRANCH   1  81
ATOM     81  CB  ASP A   7       5.926   8.263  29.960  0.00  0.00    +0.098 C 
BRANCH  81  82
ATOM     82  SG  ASP A   7       6.056   8.930  28.262  0.00  0.00    -0.080 S 
BRANCH  82  83
ATOM     83  SG  GLY A   4       5.884  10.946  28.473  0.00  0.00    -0.080 S 
BRANCH  83  84
ATOM     84  CB  GLY A   4       7.577  11.511  28.859  0.00  0.00    +0.098 C 
BRANCH  84  85
ATOM     85  CA  GLY A   4       8.662  11.012  27.895  0.00  0.00    +0.160 C 
BRANCH  85  86
ATOM     86  C   GLY A   4       8.612  11.759  26.564  0.00  0.00    +0.242 C 
ATOM     87  O   GLY A   4       9.650  12.172  26.042  0.00  0.00    -0.273 OA
ATOM     88  N   GLN A   5       7.427  11.875  25.972  0.00  0.00    -0.297 N 
ATOM     89  H   GLN A   5       6.582  11.463  26.417  0.00  0.00    +0.150 HD
BRANCH  88  90
ATOM     90  CA  GLN A   5       7.310  12.580  24.698  0.00  0.00    +0.149 C 
BRANCH  90  91
ATOM     91  C   GLN A   5       7.682  14.045  24.879  0.00  0.00    +0.241 C 
ATOM     92  O   GLN A   5       7.331  14.656  25.878  0.00  0.00    -0.273 OA
ATOM     93  N   GLY A   6       8.389  14.602  23.903  0.00  0.00    -0.295 N 
ATOM     94  H   GLY A   6       8.633  14.044  23.060  0.00  0.00    +0.150 HD
BRANCH  93  95
ATOM     95  CA  GLY A   6       8.825  15.982  24.001  0.00  0.00    +0.176 C 
BRANCH  95  96
ATOM     96  C   GLY A   6      10.298  15.981  24.353  0.00  0.00    +0.243 C 
ATOM     97  N   ASP A   7      10.728  14.929  25.043  0.00  0.00    -0.296 N 
ATOM     98  H   ASP A   7      10.050  14.187  25.308  0.00  0.00    +0.150 HD
ATOM     99  O   GLY A   6      11.038  16.907  24.004  0.00  0.00    -0.273 OA
BRANCH  97 100
ATOM    100  CA  ASP A   7      12.124  14.787  25.439  0.00  0.00    +0.160 C 
BRANCH 100 101
ATOM    101  C   ASP A   7      12.918  14.162  24.300  0.00  0.00    +0.241 C 
ATOM    102  O   ASP A   7      14.143  14.212  24.290  0.00  0.00    -0.273 OA
ATOM    103  N   SER A   8      12.210  13.546  23.358  0.00  0.00    -0.295 N 
ATOM    104  H   SER A   8      11.173  13.549  23.431  0.00  0.00    +0.150 HD
BRANCH 103 105
ATOM    105  CA  SER A   8      12.834  12.863  22.220  0.00  0.00    +0.178 C 
BRANCH 105 106
ATOM    106  C   SER A   8      13.898  13.687  21.498  0.00  0.00    +0.243 C 
ATOM    107  O   SER A   8      13.724  14.871  21.301  0.00  0.00    -0.273 OA
ATOM    108  N   GLY A   9      15.021  13.049  21.166  0.00  0.00    -0.295 N 
ATOM    109  H   GLY A   9      15.120  12.038  21.389  0.00  0.00    +0.150 HD
BRANCH 108 110
ATOM    110  CA  GLY A   9      16.105  13.740  20.500  0.00  0.00    +0.176 C 
BRANCH 110 111
ATOM    111  C   GLY A   9      17.037  14.435  21.480  0.00  0.00    +0.243 C 
ATOM    112  N   GLY A  10      16.619  14.481  22.746  0.00  0.00    -0.296 N 
ATOM    113  H   GLY A  10      15.709  14.040  22.989  0.00  0.00    +0.150 HD
ATOM    114  O   GLY A   9      18.154  14.833  21.113  0.00  0.00    -0.273 OA
BRANCH 112 115
ATOM    115  CA  GLY A  10      17.387  15.124  23.798  0.00  0.00    +0.163 C 
BRANCH 115 116
ATOM    116  C   GLY A  10      18.619  14.376  24.287  0.00  0.00    +0.229 C 
ATOM    117  O   GLY A  10      18.855  13.216  23.923  0.00  0.00    -0.286 OA
ENDBRANCH 115 116
ENDBRANCH 112 115
ENDBRANCH 110 111
ENDBRANCH 108 110
ENDBRANCH 105 106
BRANCH 105 118
ATOM    118  CB  SER A   8      11.766  12.353  21.257  0.00  0.00    +0.166 C 
BRANCH 118 119
ATOM    119  OG  SER A   8      10.729  11.687  21.972  0.00  0.00    -0.380 OA
ATOM    120  H   SER A   8      10.045  11.363  21.334  0.00  0.00    +0.211 HD
ENDBRANCH 118 119
ENDBRANCH 105 118
ENDBRANCH 103 105
ENDBRANCH 100 101
BRANCH 100 121
ATOM    121  CB  ASP A   7      12.254  13.883  26.675  0.00  0.00    +0.143 C 
BRANCH 121 122
ATOM    122  CG  ASP A   7      11.697  14.515  27.934  0.00  0.00    +0.367 C 
ATOM    123  OD2 ASP A   7      11.049  13.801  28.730  0.00  0.00    -0.246 OA
ATOM    124  OD1 ASP A   7      11.916  15.724  28.143  0.00  0.00    -0.246 OA
ENDBRANCH 121 122
ENDBRANCH 100 121
ENDBRANCH  97 100
ENDBRANCH  95  96
ENDBRANCH  93  95
ENDBRANCH  90  91
BRANCH  90 125
ATOM    125  CB  GLN A   5       5.914  12.448  24.106  0.00  0.00    +0.039 C 
BRANCH 125 126
ATOM    126  CG  GLN A   5       5.901  12.649  22.600  0.00  0.00    +0.087 C 
BRANCH 126 127
ATOM    127  CD  GLN A   5       4.513  12.928  22.066  0.00  0.00    +0.219 C 
ATOM    128  OE1 GLN A   5       3.636  13.383  22.795  0.00  0.00    -0.275 OA
ATOM    129  NE2 GLN A   5       4.303  12.642  20.785  0.00  0.00    -0.329 N 
ATOM    130 HE21 GLN A   5       3.366  12.802  20.363  0.00  0.00    +0.145 HD
ATOM    131 HE22 GLN A   5       5.076  12.258  20.205  0.00  0.00    +0.145 HD
ENDBRANCH 126 127
ENDBRANCH 125 126
ENDBRANCH  90 125
ENDBRANCH  88  90
ENDBRANCH  85  86
BRANCH  85 134
ATOM    132  C   TRP A   3      10.467  10.220  29.318  0.00  0.00    +0.241 C 
ATOM    133  O   TRP A   3       9.830   9.224  29.619  0.00  0.00    -0.273 OA
ATOM    134  N   GLY A   4       9.988  11.143  28.494  0.00  0.00    -0.296 N 
ATOM    135  H   GLY A   4      10.568  11.977  28.270  0.00  0.00    +0.150 HD
BRANCH 132 136
ATOM    136  CA  TRP A   3      11.865  10.432  29.902  0.00  0.00    +0.149 C 
ATOM    137  CB  TRP A   3      12.930  10.298  28.819  0.00  0.00    +0.031 C 
BRANCH 136 140
ATOM    138  C   SER A   2      11.246   9.328  31.957  0.00  0.00    +0.241 C 
ATOM    139  O   SER A   2      10.568  10.290  32.304  0.00  0.00    -0.273 OA
ATOM    140  N   TRP A   3      11.992   9.348  30.860  0.00  0.00    -0.297 N 
ATOM    141  H   TRP A   3      12.673   8.582  30.685  0.00  0.00    +0.150 HD
BRANCH 138 142
ATOM    142  CA  SER A   2      11.391   8.109  32.865  0.00  0.00    +0.160 C 
BRANCH 142 145
ATOM    143  C   VAL A   1      11.075   7.583  35.216  0.00  0.00    +0.238 C 
ATOM    144  O   VAL A   1      11.490   6.438  35.083  0.00  0.00    -0.274 OA
ATOM    145  N   SER A   2      11.034   8.470  34.225  0.00  0.00    -0.297 N 
ATOM    146  H   SER A   2      10.739   9.446  34.430  0.00  0.00    +0.150 HD
BRANCH 143 147
ATOM    147  CA  VAL A   1      10.637   8.075  36.574  0.00  0.00    +0.145 C 
BRANCH 147 148
ATOM    148  N   VAL A   1       9.644   7.143  37.073  0.00  0.00    -0.238 NA
ATOM    149  H   VAL A   1       9.737   6.137  36.826  0.00  0.00    +0.142 HD
ENDBRANCH 147 148
BRANCH 147 150
ATOM    150  CB  VAL A   1      11.827   8.169  37.518  0.00  0.00    +0.038 C 
BRANCH 150 151
ATOM    151  CG  VAL A   1      11.486   8.820  38.816  0.00  0.00    +0.116 C 
BRANCH 151 152
ATOM    152  CD  VAL A   1      12.694   9.144  39.644  0.00  0.00    +0.365 C 
ATOM    153  OE2 VAL A   1      12.748  10.268  40.183  0.00  0.00    -0.246 OA
ATOM    154  OE1 VAL A   1      13.587   8.286  39.755  0.00  0.00    -0.246 OA
ENDBRANCH 151 152
ENDBRANCH 150 151
ENDBRANCH 147 150
ENDBRANCH 143 147
ENDBRANCH 142 145
BRANCH 142 155
ATOM    155  CB  SER A   2      10.409   7.032  32.403  0.00  0.00    +0.143 C 
BRANCH 155 156
ATOM    156  CG  SER A   2      10.724   6.486  31.037  0.00  0.00    +0.367 C 
ATOM    157  OD2 SER A   2      11.856   6.676  30.551  0.00  0.00    -0.246 OA
ATOM    158  OD1 SER A   2       9.822   5.844  30.459  0.00  0.00    -0.246 OA
ENDBRANCH 155 156
ENDBRANCH 142 155
ENDBRANCH 138 142
ENDBRANCH 136 140
ENDBRANCH 132 136
ENDBRANCH  85 134
ENDBRANCH  84  85
ENDBRANCH  83  84
ENDBRANCH  82  83
ENDBRANCH  81  82
ENDBRANCH   1  81
TORSDOF 67
REMARK  Name = ../refined-set-2016/1lpg/1lpg_pocket.pdb
REMARK  230 active torsions:
REMARK  status: ('A' for Active; 'I' for Inactive)
REMARK    1  A    between atoms: _1  and  _5
REMARK    2  A    between atoms: _5  and  _6
REMARK    3  A    between atoms: _5  and  _8
REMARK    4  A    between atoms: _8  and  _9
REMARK    5  A    between atoms: _12  and  _14
REMARK    6  A    between atoms: _14  and  _15
REMARK    7  A    between atoms: _14  and  _17
REMARK    8  A    between atoms: _20  and  _22
REMARK    9  A    between atoms: _22  and  _23
REMARK   10  A    between atoms: _22  and  _25
REMARK   11  A    between atoms: _25  and  _26
REMARK   12  A    between atoms: _31  and  _33
REMARK   13  A    between atoms: _33  and  _34
REMARK   14  A    between atoms: _33  and  _36
REMARK   15  A    between atoms: _36  and  _37
REMARK   16  A    between atoms: _37  and  _38
REMARK   17  A    between atoms: _43  and  _45
REMARK   18  A    between atoms: _45  and  _46
REMARK   19  A    between atoms: _45  and  _48
REMARK   20  A    between atoms: _48  and  _49
REMARK   21  A    between atoms: _55  and  _57
REMARK   22  A    between atoms: _57  and  _58
REMARK   23  A    between atoms: _57  and  _60
REMARK   24  A    between atoms: _60  and  _61
REMARK   25  A    between atoms: _64  and  _66
REMARK   26  A    between atoms: _66  and  _67
REMARK   27  A    between atoms: _66  and  _69
REMARK   28  A    between atoms: _69  and  _70
REMARK   29  A    between atoms: _70  and  _71
REMARK   30  A    between atoms: _71  and  _72
REMARK   31  A    between atoms: _72  and  _73
REMARK   32  A    between atoms: _77  and  _79
REMARK   33  A    between atoms: _79  and  _80
REMARK   34  A    between atoms: _79  and  _82
REMARK   35  A    between atoms: _82  and  _83
REMARK   36  A    between atoms: _83  and  _84
REMARK   37  A    between atoms: _87  and  _89
REMARK   38  A    between atoms: _89  and  _90
REMARK   39  A    between atoms: _89  and  _92
REMARK   40  A    between atoms: _92  and  _93
REMARK   41  A    between atoms: _96  and  _98
REMARK   42  A    between atoms: _98  and  _99
REMARK   43  A    between atoms: _98  and  _101
REMARK   44  A    between atoms: _101  and  _102
REMARK   45  A    between atoms: _107  and  _108
REMARK   46  A    between atoms: _110  and  _112
REMARK   47  A    between atoms: _112  and  _113
REMARK   48  A    between atoms: _112  and  _115
REMARK   49  A    between atoms: _115  and  _116
REMARK   50  A    between atoms: _119  and  _121
REMARK   51  A    between atoms: _121  and  _122
REMARK   52  A    between atoms: _121  and  _124
REMARK   53  A    between atoms: _124  and  _125
REMARK   54  A    between atoms: _128  and  _130
REMARK   55  A    between atoms: _130  and  _131
REMARK   56  A    between atoms: _130  and  _133
REMARK   57  A    between atoms: _136  and  _138
REMARK   58  A    between atoms: _138  and  _139
REMARK   59  A    between atoms: _141  and  _143
REMARK   60  A    between atoms: _143  and  _144
REMARK   61  A    between atoms: _143  and  _146
REMARK   62  A    between atoms: _146  and  _147
REMARK   63  A    between atoms: _147  and  _148
REMARK   64  A    between atoms: _148  and  _149
REMARK   65  A    between atoms: _158  and  _160
REMARK   66  A    between atoms: _160  and  _161
REMARK   67  A    between atoms: _160  and  _163
REMARK   68  A    between atoms: _163  and  _164
REMARK   69  A    between atoms: _167  and  _169
REMARK   70  A    between atoms: _169  and  _170
REMARK   71  A    between atoms: _169  and  _172
REMARK   72  A    between atoms: _172  and  _173
REMARK   73  A    between atoms: _178  and  _180
REMARK   74  A    between atoms: _180  and  _181
REMARK   75  A    between atoms: _180  and  _183
REMARK   76  A    between atoms: _183  and  _184
REMARK   77  A    between atoms: _184  and  _185
REMARK   78  A    between atoms: _188  and  _190
REMARK   79  A    between atoms: _190  and  _191
REMARK   80  A    between atoms: _190  and  _193
REMARK   81  A    between atoms: _193  and  _194
REMARK   82  A    between atoms: _194  and  _195
REMARK   83  A    between atoms: _195  and  _196
REMARK   84  A    between atoms: _196  and  _197
REMARK   85  A    between atoms: _201  and  _203
REMARK   86  A    between atoms: _203  and  _204
REMARK   87  A    between atoms: _206  and  _208
REMARK   88  A    between atoms: _208  and  _209
REMARK   89  A    between atoms: _208  and  _211
REMARK   90  A    between atoms: _211  and  _212
REMARK   91  A    between atoms: _212  and  _213
REMARK   92  A    between atoms: _213  and  _214
REMARK   93  A    between atoms: _223  and  _225
REMARK   94  A    between atoms: _225  and  _226
REMARK   95  A    between atoms: _225  and  _228
REMARK   96  A    between atoms: _228  and  _229
REMARK   97  A    between atoms: _229  and  _230
REMARK   98  A    between atoms: _235  and  _237
REMARK   99  A    between atoms: _237  and  _238
REMARK  100  A    between atoms: _237  and  _240
REMARK  101  A    between atoms: _240  and  _241
REMARK  102  A    between atoms: _244  and  _246
REMARK  103  A    between atoms: _246  and  _247
REMARK  104  A    between atoms: _246  and  _249
REMARK  105  A    between atoms: _252  and  _254
REMARK  106  A    between atoms: _254  and  _255
REMARK  107  A    between atoms: _254  and  _257
REMARK  108  A    between atoms: _257  and  _258
REMARK  109  A    between atoms: _260  and  _262
REMARK  110  A    between atoms: _262  and  _263
REMARK  111  A    between atoms: _262  and  _265
REMARK  112  A    between atoms: _265  and  _266
REMARK  113  A    between atoms: _268  and  _270
REMARK  114  A    between atoms: _270  and  _271
REMARK  115  A    between atoms: _270  and  _273
REMARK  116  A    between atoms: _273  and  _274
REMARK  117  A    between atoms: _280  and  _282
REMARK  118  A    between atoms: _282  and  _283
REMARK  119  A    between atoms: _282  and  _285
REMARK  120  A    between atoms: _285  and  _286
REMARK  121  A    between atoms: _289  and  _291
REMARK  122  A    between atoms: _291  and  _292
REMARK  123  A    between atoms: _291  and  _294
REMARK  124  A    between atoms: _294  and  _295
REMARK  125  A    between atoms: _298  and  _300
REMARK  126  A    between atoms: _300  and  _301
REMARK  127  A    between atoms: _300  and  _303
REMARK  128  A    between atoms: _303  and  _304
REMARK  129  A    between atoms: _307  and  _309
REMARK  130  A    between atoms: _309  and  _310
REMARK  131  A    between atoms: _309  and  _312
REMARK  132  A    between atoms: _312  and  _313
REMARK  133  A    between atoms: _313  and  _314
REMARK  134  A    between atoms: _316  and  _318
REMARK  135  A    between atoms: _318  and  _319
REMARK  136  A    between atoms: _318  and  _321
REMARK  137  A    between atoms: _323  and  _325
REMARK  138  A    between atoms: _325  and  _326
REMARK  139  A    between atoms: _329  and  _331
REMARK  140  A    between atoms: _331  and  _332
REMARK  141  A    between atoms: _334  and  _336
REMARK  142  A    between atoms: _336  and  _337
REMARK  143  A    between atoms: _336  and  _339
REMARK  144  A    between atoms: _339  and  _340
REMARK  145  A    between atoms: _340  and  _341
REMARK  146  A    between atoms: _344  and  _346
REMARK  147  A    between atoms: _346  and  _347
REMARK  148  A    between atoms: _346  and  _349
REMARK  149  A    between atoms: _349  and  _350
REMARK  150  A    between atoms: _353  and  _355
REMARK  151  A    between atoms: _355  and  _356
REMARK  152  A    between atoms: _359  and  _361
REMARK  153  A    between atoms: _361  and  _362
REMARK  154  A    between atoms: _361  and  _364
REMARK  155  A    between atoms: _364  and  _365
REMARK  156  A    between atoms: _365  and  _468
REMARK  157  A    between atoms: _366  and  _368
REMARK  158  A    between atoms: _368  and  _369
REMARK  159  A    between atoms: _368  and  _371
REMARK  160  A    between atoms: _371  and  _372
REMARK  161  A    between atoms: _372  and  _373
REMARK  162  A    between atoms: _378  and  _380
REMARK  163  A    between atoms: _380  and  _381
REMARK  164  A    between atoms: _383  and  _385
REMARK  165  A    between atoms: _385  and  _386
REMARK  166  A    between atoms: _385  and  _388
REMARK  167  A    between atoms: _388  and  _389
REMARK  168  A    between atoms: _392  and  _394
REMARK  169  A    between atoms: _394  and  _395
REMARK  170  A    between atoms: _394  and  _397
REMARK  171  A    between atoms: _397  and  _398
REMARK  172  A    between atoms: _400  and  _402
REMARK  173  A    between atoms: _402  and  _403
REMARK  174  A    between atoms: _405  and  _407
REMARK  175  A    between atoms: _407  and  _408
REMARK  176  A    between atoms: _410  and  _412
REMARK  177  A    between atoms: _412  and  _413
REMARK  178  A    between atoms: _412  and  _415
REMARK  179  A    between atoms: _418  and  _420
REMARK  180  A    between atoms: _420  and  _421
REMARK  181  A    between atoms: _420  and  _423
REMARK  182  A    between atoms: _423  and  _424
REMARK  183  A    between atoms: _426  and  _428
REMARK  184  A    between atoms: _428  and  _429
REMARK  185  A    between atoms: _428  and  _431
REMARK  186  A    between atoms: _431  and  _432
REMARK  187  A    between atoms: _442  and  _444
REMARK  188  A    between atoms: _444  and  _445
REMARK  189  A    between atoms: _447  and  _449
REMARK  190  A    between atoms: _449  and  _450
REMARK  191  A    between atoms: _449  and  _452
REMARK  192  A    between atoms: _452  and  _453
REMARK  193  A    between atoms: _453  and  _454
REMARK  194  A    between atoms: _457  and  _459
REMARK  195  A    between atoms: _459  and  _460
REMARK  196  A    between atoms: _462  and  _464
REMARK  197  A    between atoms: _464  and  _465
REMARK  198  A    between atoms: _464  and  _467
REMARK  199  A    between atoms: _467  and  _468
REMARK  200  A    between atoms: _469  and  _471
REMARK  201  A    between atoms: _471  and  _472
REMARK  202  A    between atoms: _475  and  _477
REMARK  203  A    between atoms: _477  and  _478
REMARK  204  A    between atoms: _477  and  _480
REMARK  205  A    between atoms: _480  and  _481
REMARK  206  A    between atoms: _481  and  _482
REMARK  207  A    between atoms: _482  and  _483
REMARK  208  A    between atoms: _492  and  _494
REMARK  209  A    between atoms: _494  and  _495
REMARK  210  A    between atoms: _494  and  _497
REMARK  211  A    between atoms: _497  and  _498
REMARK  212  A    between atoms: _498  and  _499
REMARK  213  A    between atoms: _499  and  _500
REMARK  214  A    between atoms: _500  and  _501
REMARK  215  A    between atoms: _505  and  _507
REMARK  216  A    between atoms: _507  and  _508
REMARK  217  A    between atoms: _507  and  _510
REMARK  218  A    between atoms: _510  and  _511
REMARK  219  A    between atoms: _516  and  _517
REMARK  220  A    between atoms: _519  and  _521
REMARK  221  A    between atoms: _521  and  _522
REMARK  222  A    between atoms: _524  and  _526
REMARK  223  A    between atoms: _526  and  _527
REMARK  224  A    between atoms: _526  and  _529
REMARK  225  A    between atoms: _529  and  _530
REMARK  226  A    between atoms: _533  and  _535
REMARK  227  A    between atoms: _535  and  _536
REMARK  228  A    between atoms: _535  and  _538
REMARK  229  A    between atoms: _538  and  _539
REMARK  230  A    between atoms: _544  and  _545
REMARK                            x       y       z     vdW  Elec       q    Type
REMARK                         _______ _______ _______ _____ _____    ______ ____
ROOT
ATOM      1  C   TYR A   2      12.320   2.275  29.132  0.00  0.00    +0.241 C 
ATOM      2  N   GLY A   3      13.249   3.209  29.287  0.00  0.00    -0.295 N 
ATOM      3  H   GLY A   3      13.878   3.189  30.115  0.00  0.00    +0.150 HD
ATOM      4  O   TYR A   2      11.509   2.301  28.215  0.00  0.00    -0.273 OA
ENDROOT
BRANCH   2   5
ATOM      5  CA  GLY A   3      13.382   4.254  28.298  0.00  0.00    +0.176 C 
BRANCH   5   6
ATOM      6  C   GLY A   3      14.376   3.751  27.271  0.00  0.00    +0.243 C 
ATOM      7  O   GLY A   3      15.402   3.191  27.641  0.00  0.00    -0.273 OA
ATOM      8  N   ILE A   4      14.048   3.884  25.992  0.00  0.00    -0.297 N 
ATOM      9  H   ILE A   4      13.137   4.320  25.742  0.00  0.00    +0.150 HD
BRANCH   8  10
ATOM     10  CA  ILE A   4      14.935   3.433  24.935  0.00  0.00    +0.149 C 
BRANCH  10  11
ATOM     11  C   ILE A   4      15.719   4.607  24.337  0.00  0.00    +0.241 C 
ATOM     12  N   TYR A   5      17.036   4.454  24.285  0.00  0.00    -0.298 N 
ATOM     13  H   TYR A   5      17.448   3.561  24.625  0.00  0.00    +0.150 HD
ATOM     14  O   ILE A   4      15.134   5.598  23.881  0.00  0.00    -0.273 OA
BRANCH  12  15
ATOM     15  CA  TYR A   5      17.928   5.482  23.773  0.00  0.00    +0.141 C 
BRANCH  15  16
ATOM     16  C   TYR A   5      18.772   4.975  22.632  0.00  0.00    +0.227 C 
ATOM     17  O   TYR A   5      19.145   3.797  22.596  0.00  0.00    -0.286 OA
ENDBRANCH  15  16
BRANCH  15  18
ATOM     18  CB  TYR A   5      18.883   5.935  24.873  0.00  0.00    +0.054 C 
BRANCH  18  19
ATOM     19  CG  TYR A   5      18.180   6.506  26.070  0.00  0.00    -0.020 A 
ATOM     20  CD2 TYR A   5      17.582   5.662  27.012  0.00  0.00    -0.001 A 
ATOM     21  CE2 TYR A   5      16.854   6.175  28.088  0.00  0.00    +0.036 A 
ATOM     22  CZ  TYR A   5      16.727   7.545  28.225  0.00  0.00    +0.134 A 
ATOM     23  CE1 TYR A   5      17.323   8.409  27.303  0.00  0.00    +0.036 A 
ATOM     24  CD1 TYR A   5      18.046   7.887  26.235  0.00  0.00    -0.001 A 
BRANCH  22  25
ATOM     25  OH  TYR A   5      15.997   8.028  29.280  0.00  0.00    -0.506 OA
ATOM     26  HH  TYR A   5      15.657   7.270  29.819  0.00  0.00    +0.292 HD
ENDBRANCH  22  25
ENDBRANCH  18  19
ENDBRANCH  15  18
ENDBRANCH  12  15
ENDBRANCH  10  11
BRANCH  10  27
ATOM     27  CB  ILE A   4      14.179   2.666  23.829  0.00  0.00    +0.027 C 
ATOM     28  CG2 ILE A   4      15.161   1.909  22.955  0.00  0.00    +0.002 C 
BRANCH  27  29
ATOM     29  CG1 ILE A   4      13.109   1.731  24.429  0.00  0.00    +0.002 C 
ATOM     30  CD1 ILE A   4      13.665   0.614  25.303  0.00  0.00    +0.000 C 
ENDBRANCH  27  29
ENDBRANCH  10  27
ENDBRANCH   8  10
ENDBRANCH   5   6
ENDBRANCH   2   5
BRANCH   1  31
ATOM     31  CA  TYR A   2      12.277   1.183  30.200  0.00  0.00    +0.153 C 
BRANCH  31  34
ATOM     32  C   LYS A   1      10.212   0.087  30.941  0.00  0.00    +0.238 C 
ATOM     33  O   LYS A   1      10.136   0.783  31.953  0.00  0.00    -0.274 OA
ATOM     34  N   TYR A   2      11.167   0.238  30.020  0.00  0.00    -0.297 N 
ATOM     35  H   TYR A   2      11.124  -0.330  29.150  0.00  0.00    +0.150 HD
BRANCH  32  36
ATOM     36  CA  LYS A   1       9.126  -0.931  30.639  0.00  0.00    +0.145 C 
BRANCH  36  37
ATOM     37  N   LYS A   1       8.622  -1.520  31.875  0.00  0.00    -0.238 NA
ATOM     38  H   LYS A   1       8.218  -0.891  32.598  0.00  0.00    +0.142 HD
ENDBRANCH  36  37
BRANCH  36  39
ATOM     39  CB  LYS A   1       7.982  -0.245  29.894  0.00  0.00    +0.026 C 
BRANCH  39  40
ATOM     40  CG  LYS A   1       6.849  -1.183  29.516  0.00  0.00    -0.000 C 
BRANCH  40  41
ATOM     41  CD  LYS A   1       7.296  -2.149  28.435  0.00  0.00    -0.024 C 
BRANCH  41  42
ATOM     42  CE  LYS A   1       6.395  -3.375  28.354  0.00  0.00    -0.086 C 
BRANCH  42  43
ATOM     43  NZ  LYS A   1       6.204  -3.797  26.942  0.00  0.00    +0.380 N 
ATOM     44  HZ1 LYS A   1       5.587  -4.634  26.912  0.00  0.00    -0.089 HD
ATOM     45  HZ2 LYS A   1       7.127  -4.030  26.523  0.00  0.00    -0.089 HD
ATOM     46  HZ3 LYS A   1       5.765  -3.021  26.406  0.00  0.00    -0.089 HD
ENDBRANCH  42  43
ENDBRANCH  41  42
ENDBRANCH  40  41
ENDBRANCH  39  40
ENDBRANCH  36  39
ENDBRANCH  32  36
ENDBRANCH  31  34
BRANCH  31  47
ATOM     47  CB  TYR A   2      13.623   0.448  30.213  0.00  0.00    +0.055 C 
BRANCH  47  48
ATOM     48  CG  TYR A   2      13.688  -0.668  31.223  0.00  0.00    -0.020 A 
ATOM     49  CD2 TYR A   2      13.837  -0.390  32.587  0.00  0.00    -0.001 A 
ATOM     50  CE2 TYR A   2      13.844  -1.414  33.538  0.00  0.00    +0.036 A 
ATOM     51  CZ  TYR A   2      13.702  -2.729  33.124  0.00  0.00    +0.134 A 
ATOM     52  CE1 TYR A   2      13.554  -3.029  31.770  0.00  0.00    +0.036 A 
ATOM     53  CD1 TYR A   2      13.551  -2.003  30.830  0.00  0.00    -0.001 A 
BRANCH  51  54
ATOM     54  OH  TYR A   2      13.721  -3.736  34.069  0.00  0.00    -0.506 OA
ATOM     55  HH  TYR A   2      12.869  -4.238  34.032  0.00  0.00    +0.292 HD
ENDBRANCH  51  54
ENDBRANCH  47  48
ENDBRANCH  31  47
ENDBRANCH   1  31
TORSDOF 23
REMARK  Name = ../refined-set-2016/1lpg/1lpg_pocket.pdb
REMARK  230 active torsions:
REMARK  status: ('A' for Active; 'I' for Inactive)
REMARK    1  A    between atoms: _1  and  _5
REMARK    2  A    between atoms: _5  and  _6
REMARK    3  A    between atoms: _5  and  _8
REMARK    4  A    between atoms: _8  and  _9
REMARK    5  A    between atoms: _12  and  _14
REMARK    6  A    between atoms: _14  and  _15
REMARK    7  A    between atoms: _14  and  _17
REMARK    8  A    between atoms: _20  and  _22
REMARK    9  A    between atoms: _22  and  _23
REMARK   10  A    between atoms: _22  and  _25
REMARK   11  A    between atoms: _25  and  _26
REMARK   12  A    between atoms: _31  and  _33
REMARK   13  A    between atoms: _33  and  _34
REMARK   14  A    between atoms: _33  and  _36
REMARK   15  A    between atoms: _36  and  _37
REMARK   16  A    between atoms: _37  and  _38
REMARK   17  A    between atoms: _43  and  _45
REMARK   18  A    between atoms: _45  and  _46
REMARK   19  A    between atoms: _45  and  _48
REMARK   20  A    between atoms: _48  and  _49
REMARK   21  A    between atoms: _55  and  _57
REMARK   22  A    between atoms: _57  and  _58
REMARK   23  A    between atoms: _57  and  _60
REMARK   24  A    between atoms: _60  and  _61
REMARK   25  A    between atoms: _64  and  _66
REMARK   26  A    between atoms: _66  and  _67
REMARK   27  A    between atoms: _66  and  _69
REMARK   28  A    between atoms: _69  and  _70
REMARK   29  A    between atoms: _70  and  _71
REMARK   30  A    between atoms: _71  and  _72
REMARK   31  A    between atoms: _72  and  _73
REMARK   32  A    between atoms: _77  and  _79
REMARK   33  A    between atoms: _79  and  _80
REMARK   34  A    between atoms: _79  and  _82
REMARK   35  A    between atoms: _82  and  _83
REMARK   36  A    between atoms: _83  and  _84
REMARK   37  A    between atoms: _87  and  _89
REMARK   38  A    between atoms: _89  and  _90
REMARK   39  A    between atoms: _89  and  _92
REMARK   40  A    between atoms: _92  and  _93
REMARK   41  A    between atoms: _96  and  _98
REMARK   42  A    between atoms: _98  and  _99
REMARK   43  A    between atoms: _98  and  _101
REMARK   44  A    between atoms: _101  and  _102
REMARK   45  A    between atoms: _107  and  _108
REMARK   46  A    between atoms: _110  and  _112
REMARK   47  A    between atoms: _112  and  _113
REMARK   48  A    between atoms: _112  and  _115
REMARK   49  A    between atoms: _115  and  _116
REMARK   50  A    between atoms: _119  and  _121
REMARK   51  A    between atoms: _121  and  _122
REMARK   52  A    between atoms: _121  and  _124
REMARK   53  A    between atoms: _124  and  _125
REMARK   54  A    between atoms: _128  and  _130
REMARK   55  A    between atoms: _130  and  _131
REMARK   56  A    between atoms: _130  and  _133
REMARK   57  A    between atoms: _136  and  _138
REMARK   58  A    between atoms: _138  and  _139
REMARK   59  A    between atoms: _141  and  _143
REMARK   60  A    between atoms: _143  and  _144
REMARK   61  A    between atoms: _143  and  _146
REMARK   62  A    between atoms: _146  and  _147
REMARK   63  A    between atoms: _147  and  _148
REMARK   64  A    between atoms: _148  and  _149
REMARK   65  A    between atoms: _158  and  _160
REMARK   66  A    between atoms: _160  and  _161
REMARK   67  A    between atoms: _160  and  _163
REMARK   68  A    between atoms: _163  and  _164
REMARK   69  A    between atoms: _167  and  _169
REMARK   70  A    between atoms: _169  and  _170
REMARK   71  A    between atoms: _169  and  _172
REMARK   72  A    between atoms: _172  and  _173
REMARK   73  A    between atoms: _178  and  _180
REMARK   74  A    between atoms: _180  and  _181
REMARK   75  A    between atoms: _180  and  _183
REMARK   76  A    between atoms: _183  and  _184
REMARK   77  A    between atoms: _184  and  _185
REMARK   78  A    between atoms: _188  and  _190
REMARK   79  A    between atoms: _190  and  _191
REMARK   80  A    between atoms: _190  and  _193
REMARK   81  A    between atoms: _193  and  _194
REMARK   82  A    between atoms: _194  and  _195
REMARK   83  A    between atoms: _195  and  _196
REMARK   84  A    between atoms: _196  and  _197
REMARK   85  A    between atoms: _201  and  _203
REMARK   86  A    between atoms: _203  and  _204
REMARK   87  A    between atoms: _206  and  _208
REMARK   88  A    between atoms: _208  and  _209
REMARK   89  A    between atoms: _208  and  _211
REMARK   90  A    between atoms: _211  and  _212
REMARK   91  A    between atoms: _212  and  _213
REMARK   92  A    between atoms: _213  and  _214
REMARK   93  A    between atoms: _223  and  _225
REMARK   94  A    between atoms: _225  and  _226
REMARK   95  A    between atoms: _225  and  _228
REMARK   96  A    between atoms: _228  and  _229
REMARK   97  A    between atoms: _229  and  _230
REMARK   98  A    between atoms: _235  and  _237
REMARK   99  A    between atoms: _237  and  _238
REMARK  100  A    between atoms: _237  and  _240
REMARK  101  A    between atoms: _240  and  _241
REMARK  102  A    between atoms: _244  and  _246
REMARK  103  A    between atoms: _246  and  _247
REMARK  104  A    between atoms: _246  and  _249
REMARK  105  A    between atoms: _252  and  _254
REMARK  106  A    between atoms: _254  and  _255
REMARK  107  A    between atoms: _254  and  _257
REMARK  108  A    between atoms: _257  and  _258
REMARK  109  A    between atoms: _260  and  _262
REMARK  110  A    between atoms: _262  and  _263
REMARK  111  A    between atoms: _262  and  _265
REMARK  112  A    between atoms: _265  and  _266
REMARK  113  A    between atoms: _268  and  _270
REMARK  114  A    between atoms: _270  and  _271
REMARK  115  A    between atoms: _270  and  _273
REMARK  116  A    between atoms: _273  and  _274
REMARK  117  A    between atoms: _280  and  _282
REMARK  118  A    between atoms: _282  and  _283
REMARK  119  A    between atoms: _282  and  _285
REMARK  120  A    between atoms: _285  and  _286
REMARK  121  A    between atoms: _289  and  _291
REMARK  122  A    between atoms: _291  and  _292
REMARK  123  A    between atoms: _291  and  _294
REMARK  124  A    between atoms: _294  and  _295
REMARK  125  A    between atoms: _298  and  _300
REMARK  126  A    between atoms: _300  and  _301
REMARK  127  A    between atoms: _300  and  _303
REMARK  128  A    between atoms: _303  and  _304
REMARK  129  A    between atoms: _307  and  _309
REMARK  130  A    between atoms: _309  and  _310
REMARK  131  A    between atoms: _309  and  _312
REMARK  132  A    between atoms: _312  and  _313
REMARK  133  A    between atoms: _313  and  _314
REMARK  134  A    between atoms: _316  and  _318
REMARK  135  A    between atoms: _318  and  _319
REMARK  136  A    between atoms: _318  and  _321
REMARK  137  A    between atoms: _323  and  _325
REMARK  138  A    between atoms: _325  and  _326
REMARK  139  A    between atoms: _329  and  _331
REMARK  140  A    between atoms: _331  and  _332
REMARK  141  A    between atoms: _334  and  _336
REMARK  142  A    between atoms: _336  and  _337
REMARK  143  A    between atoms: _336  and  _339
REMARK  144  A    between atoms: _339  and  _340
REMARK  145  A    between atoms: _340  and  _341
REMARK  146  A    between atoms: _344  and  _346
REMARK  147  A    between atoms: _346  and  _347
REMARK  148  A    between atoms: _346  and  _349
REMARK  149  A    between atoms: _349  and  _350
REMARK  150  A    between atoms: _353  and  _355
REMARK  151  A    between atoms: _355  and  _356
REMARK  152  A    between atoms: _359  and  _361
REMARK  153  A    between atoms: _361  and  _362
REMARK  154  A    between atoms: _361  and  _364
REMARK  155  A    between atoms: _364  and  _365
REMARK  156  A    between atoms: _365  and  _468
REMARK  157  A    between atoms: _366  and  _368
REMARK  158  A    between atoms: _368  and  _369
REMARK  159  A    between atoms: _368  and  _371
REMARK  160  A    between atoms: _371  and  _372
REMARK  161  A    between atoms: _372  and  _373
REMARK  162  A    between atoms: _378  and  _380
REMARK  163  A    between atoms: _380  and  _381
REMARK  164  A    between atoms: _383  and  _385
REMARK  165  A    between atoms: _385  and  _386
REMARK  166  A    between atoms: _385  and  _388
REMARK  167  A    between atoms: _388  and  _389
REMARK  168  A    between atoms: _392  and  _394
REMARK  169  A    between atoms: _394  and  _395
REMARK  170  A    between atoms: _394  and  _397
REMARK  171  A    between atoms: _397  and  _398
REMARK  172  A    between atoms: _400  and  _402
REMARK  173  A    between atoms: _402  and  _403
REMARK  174  A    between atoms: _405  and  _407
REMARK  175  A    between atoms: _407  and  _408
REMARK  176  A    between atoms: _410  and  _412
REMARK  177  A    between atoms: _412  and  _413
REMARK  178  A    between atoms: _412  and  _415
REMARK  179  A    between atoms: _418  and  _420
REMARK  180  A    between atoms: _420  and  _421
REMARK  181  A    between atoms: _420  and  _423
REMARK  182  A    between atoms: _423  and  _424
REMARK  183  A    between atoms: _426  and  _428
REMARK  184  A    between atoms: _428  and  _429
REMARK  185  A    between atoms: _428  and  _431
REMARK  186  A    between atoms: _431  and  _432
REMARK  187  A    between atoms: _442  and  _444
REMARK  188  A    between atoms: _444  and  _445
REMARK  189  A    between atoms: _447  and  _449
REMARK  190  A    between atoms: _449  and  _450
REMARK  191  A    between atoms: _449  and  _452
REMARK  192  A    between atoms: _452  and  _453
REMARK  193  A    between atoms: _453  and  _454
REMARK  194  A    between atoms: _457  and  _459
REMARK  195  A    between atoms: _459  and  _460
REMARK  196  A    between atoms: _462  and  _464
REMARK  197  A    between atoms: _464  and  _465
REMARK  198  A    between atoms: _464  and  _467
REMARK  199  A    between atoms: _467  and  _468
REMARK  200  A    between atoms: _469  and  _471
REMARK  201  A    between atoms: _471  and  _472
REMARK  202  A    between atoms: _475  and  _477
REMARK  203  A    between atoms: _477  and  _478
REMARK  204  A    between atoms: _477  and  _480
REMARK  205  A    between atoms: _480  and  _481
REMARK  206  A    between atoms: _481  and  _482
REMARK  207  A    between atoms: _482  and  _483
REMARK  208  A    between atoms: _492  and  _494
REMARK  209  A    between atoms: _494  and  _495
REMARK  210  A    between atoms: _494  and  _497
REMARK  211  A    between atoms: _497  and  _498
REMARK  212  A    between atoms: _498  and  _499
REMARK  213  A    between atoms: _499  and  _500
REMARK  214  A    between atoms: _500  and  _501
REMARK  215  A    between atoms: _505  and  _507
REMARK  216  A    between atoms: _507  and  _508
REMARK  217  A    between atoms: _507  and  _510
REMARK  218  A    between atoms: _510  and  _511
REMARK  219  A    between atoms: _516  and  _517
REMARK  220  A    between atoms: _519  and  _521
REMARK  221  A    between atoms: _521  and  _522
REMARK  222  A    between atoms: _524  and  _526
REMARK  223  A    between atoms: _526  and  _527
REMARK  224  A    between atoms: _526  and  _529
REMARK  225  A    between atoms: _529  and  _530
REMARK  226  A    between atoms: _533  and  _535
REMARK  227  A    between atoms: _535  and  _536
REMARK  228  A    between atoms: _535  and  _538
REMARK  229  A    between atoms: _538  and  _539
REMARK  230  A    between atoms: _544  and  _545
REMARK                            x       y       z     vdW  Elec       q    Type
REMARK                         _______ _______ _______ _____ _____    ______ ____
ROOT
ATOM      1  O   HOH     1      14.389   6.444  30.852  0.00  0.00    +0.000 OA
ENDROOT
TORSDOF 0
REMARK  Name = ../refined-set-2016/1lpg/1lpg_pocket.pdb
REMARK  230 active torsions:
REMARK  status: ('A' for Active; 'I' for Inactive)
REMARK    1  A    between atoms: _1  and  _5
REMARK    2  A    between atoms: _5  and  _6
REMARK    3  A    between atoms: _5  and  _8
REMARK    4  A    between atoms: _8  and  _9
REMARK    5  A    between atoms: _12  and  _14
REMARK    6  A    between atoms: _14  and  _15
REMARK    7  A    between atoms: _14  and  _17
REMARK    8  A    between atoms: _20  and  _22
REMARK    9  A    between atoms: _22  and  _23
REMARK   10  A    between atoms: _22  and  _25
REMARK   11  A    between atoms: _25  and  _26
REMARK   12  A    between atoms: _31  and  _33
REMARK   13  A    between atoms: _33  and  _34
REMARK   14  A    between atoms: _33  and  _36
REMARK   15  A    between atoms: _36  and  _37
REMARK   16  A    between atoms: _37  and  _38
REMARK   17  A    between atoms: _43  and  _45
REMARK   18  A    between atoms: _45  and  _46
REMARK   19  A    between atoms: _45  and  _48
REMARK   20  A    between atoms: _48  and  _49
REMARK   21  A    between atoms: _55  and  _57
REMARK   22  A    between atoms: _57  and  _58
REMARK   23  A    between atoms: _57  and  _60
REMARK   24  A    between atoms: _60  and  _61
REMARK   25  A    between atoms: _64  and  _66
REMARK   26  A    between atoms: _66  and  _67
REMARK   27  A    between atoms: _66  and  _69
REMARK   28  A    between atoms: _69  and  _70
REMARK   29  A    between atoms: _70  and  _71
REMARK   30  A    between atoms: _71  and  _72
REMARK   31  A    between atoms: _72  and  _73
REMARK   32  A    between atoms: _77  and  _79
REMARK   33  A    between atoms: _79  and  _80
REMARK   34  A    between atoms: _79  and  _82
REMARK   35  A    between atoms: _82  and  _83
REMARK   36  A    between atoms: _83  and  _84
REMARK   37  A    between atoms: _87  and  _89
REMARK   38  A    between atoms: _89  and  _90
REMARK   39  A    between atoms: _89  and  _92
REMARK   40  A    between atoms: _92  and  _93
REMARK   41  A    between atoms: _96  and  _98
REMARK   42  A    between atoms: _98  and  _99
REMARK   43  A    between atoms: _98  and  _101
REMARK   44  A    between atoms: _101  and  _102
REMARK   45  A    between atoms: _107  and  _108
REMARK   46  A    between atoms: _110  and  _112
REMARK   47  A    between atoms: _112  and  _113
REMARK   48  A    between atoms: _112  and  _115
REMARK   49  A    between atoms: _115  and  _116
REMARK   50  A    between atoms: _119  and  _121
REMARK   51  A    between atoms: _121  and  _122
REMARK   52  A    between atoms: _121  and  _124
REMARK   53  A    between atoms: _124  and  _125
REMARK   54  A    between atoms: _128  and  _130
REMARK   55  A    between atoms: _130  and  _131
REMARK   56  A    between atoms: _130  and  _133
REMARK   57  A    between atoms: _136  and  _138
REMARK   58  A    between atoms: _138  and  _139
REMARK   59  A    between atoms: _141  and  _143
REMARK   60  A    between atoms: _143  and  _144
REMARK   61  A    between atoms: _143  and  _146
REMARK   62  A    between atoms: _146  and  _147
REMARK   63  A    between atoms: _147  and  _148
REMARK   64  A    between atoms: _148  and  _149
REMARK   65  A    between atoms: _158  and  _160
REMARK   66  A    between atoms: _160  and  _161
REMARK   67  A    between atoms: _160  and  _163
REMARK   68  A    between atoms: _163  and  _164
REMARK   69  A    between atoms: _167  and  _169
REMARK   70  A    between atoms: _169  and  _170
REMARK   71  A    between atoms: _169  and  _172
REMARK   72  A    between atoms: _172  and  _173
REMARK   73  A    between atoms: _178  and  _180
REMARK   74  A    between atoms: _180  and  _181
REMARK   75  A    between atoms: _180  and  _183
REMARK   76  A    between atoms: _183  and  _184
REMARK   77  A    between atoms: _184  and  _185
REMARK   78  A    between atoms: _188  and  _190
REMARK   79  A    between atoms: _190  and  _191
REMARK   80  A    between atoms: _190  and  _193
REMARK   81  A    between atoms: _193  and  _194
REMARK   82  A    between atoms: _194  and  _195
REMARK   83  A    between atoms: _195  and  _196
REMARK   84  A    between atoms: _196  and  _197
REMARK   85  A    between atoms: _201  and  _203
REMARK   86  A    between atoms: _203  and  _204
REMARK   87  A    between atoms: _206  and  _208
REMARK   88  A    between atoms: _208  and  _209
REMARK   89  A    between atoms: _208  and  _211
REMARK   90  A    between atoms: _211  and  _212
REMARK   91  A    between atoms: _212  and  _213
REMARK   92  A    between atoms: _213  and  _214
REMARK   93  A    between atoms: _223  and  _225
REMARK   94  A    between atoms: _225  and  _226
REMARK   95  A    between atoms: _225  and  _228
REMARK   96  A    between atoms: _228  and  _229
REMARK   97  A    between atoms: _229  and  _230
REMARK   98  A    between atoms: _235  and  _237
REMARK   99  A    between atoms: _237  and  _238
REMARK  100  A    between atoms: _237  and  _240
REMARK  101  A    between atoms: _240  and  _241
REMARK  102  A    between atoms: _244  and  _246
REMARK  103  A    between atoms: _246  and  _247
REMARK  104  A    between atoms: _246  and  _249
REMARK  105  A    between atoms: _252  and  _254
REMARK  106  A    between atoms: _254  and  _255
REMARK  107  A    between atoms: _254  and  _257
REMARK  108  A    between atoms: _257  and  _258
REMARK  109  A    between atoms: _260  and  _262
REMARK  110  A    between atoms: _262  and  _263
REMARK  111  A    between atoms: _262  and  _265
REMARK  112  A    between atoms: _265  and  _266
REMARK  113  A    between atoms: _268  and  _270
REMARK  114  A    between atoms: _270  and  _271
REMARK  115  A    between atoms: _270  and  _273
REMARK  116  A    between atoms: _273  and  _274
REMARK  117  A    between atoms: _280  and  _282
REMARK  118  A    between atoms: _282  and  _283
REMARK  119  A    between atoms: _282  and  _285
REMARK  120  A    between atoms: _285  and  _286
REMARK  121  A    between atoms: _289  and  _291
REMARK  122  A    between atoms: _291  and  _292
REMARK  123  A    between atoms: _291  and  _294
REMARK  124  A    between atoms: _294  and  _295
REMARK  125  A    between atoms: _298  and  _300
REMARK  126  A    between atoms: _300  and  _301
REMARK  127  A    between atoms: _300  and  _303
REMARK  128  A    between atoms: _303  and  _304
REMARK  129  A    between atoms: _307  and  _309
REMARK  130  A    between atoms: _309  and  _310
REMARK  131  A    between atoms: _309  and  _312
REMARK  132  A    between atoms: _312  and  _313
REMARK  133  A    between atoms: _313  and  _314
REMARK  134  A    between atoms: _316  and  _318
REMARK  135  A    between atoms: _318  and  _319
REMARK  136  A    between atoms: _318  and  _321
REMARK  137  A    between atoms: _323  and  _325
REMARK  138  A    between atoms: _325  and  _326
REMARK  139  A    between atoms: _329  and  _331
REMARK  140  A    between atoms: _331  and  _332
REMARK  141  A    between atoms: _334  and  _336
REMARK  142  A    between atoms: _336  and  _337
REMARK  143  A    between atoms: _336  and  _339
REMARK  144  A    between atoms: _339  and  _340
REMARK  145  A    between atoms: _340  and  _341
REMARK  146  A    between atoms: _344  and  _346
REMARK  147  A    between atoms: _346  and  _347
REMARK  148  A    between atoms: _346  and  _349
REMARK  149  A    between atoms: _349  and  _350
REMARK  150  A    between atoms: _353  and  _355
REMARK  151  A    between atoms: _355  and  _356
REMARK  152  A    between atoms: _359  and  _361
REMARK  153  A    between atoms: _361  and  _362
REMARK  154  A    between atoms: _361  and  _364
REMARK  155  A    between atoms: _364  and  _365
REMARK  156  A    between atoms: _365  and  _468
REMARK  157  A    between atoms: _366  and  _368
REMARK  158  A    between atoms: _368  and  _369
REMARK  159  A    between atoms: _368  and  _371
REMARK  160  A    between atoms: _371  and  _372
REMARK  161  A    between atoms: _372  and  _373
REMARK  162  A    between atoms: _378  and  _380
REMARK  163  A    between atoms: _380  and  _381
REMARK  164  A    between atoms: _383  and  _385
REMARK  165  A    between atoms: _385  and  _386
REMARK  166  A    between atoms: _385  and  _388
REMARK  167  A    between atoms: _388  and  _389
REMARK  168  A    between atoms: _392  and  _394
REMARK  169  A    between atoms: _394  and  _395
REMARK  170  A    between atoms: _394  and  _397
REMARK  171  A    between atoms: _397  and  _398
REMARK  172  A    between atoms: _400  and  _402
REMARK  173  A    between atoms: _402  and  _403
REMARK  174  A    between atoms: _405  and  _407
REMARK  175  A    between atoms: _407  and  _408
REMARK  176  A    between atoms: _410  and  _412
REMARK  177  A    between atoms: _412  and  _413
REMARK  178  A    between atoms: _412  and  _415
REMARK  179  A    between atoms: _418  and  _420
REMARK  180  A    between atoms: _420  and  _421
REMARK  181  A    between atoms: _420  and  _423
REMARK  182  A    between atoms: _423  and  _424
REMARK  183  A    between atoms: _426  and  _428
REMARK  184  A    between atoms: _428  and  _429
REMARK  185  A    between atoms: _428  and  _431
REMARK  186  A    between atoms: _431  and  _432
REMARK  187  A    between atoms: _442  and  _444
REMARK  188  A    between atoms: _444  and  _445
REMARK  189  A    between atoms: _447  and  _449
REMARK  190  A    between atoms: _449  and  _450
REMARK  191  A    between atoms: _449  and  _452
REMARK  192  A    between atoms: _452  and  _453
REMARK  193  A    between atoms: _453  and  _454
REMARK  194  A    between atoms: _457  and  _459
REMARK  195  A    between atoms: _459  and  _460
REMARK  196  A    between atoms: _462  and  _464
REMARK  197  A    between atoms: _464  and  _465
REMARK  198  A    between atoms: _464  and  _467
REMARK  199  A    between atoms: _467  and  _468
REMARK  200  A    between atoms: _469  and  _471
REMARK  201  A    between atoms: _471  and  _472
REMARK  202  A    between atoms: _475  and  _477
REMARK  203  A    between atoms: _477  and  _478
REMARK  204  A    between atoms: _477  and  _480
REMARK  205  A    between atoms: _480  and  _481
REMARK  206  A    between atoms: _481  and  _482
REMARK  207  A    between atoms: _482  and  _483
REMARK  208  A    between atoms: _492  and  _494
REMARK  209  A    between atoms: _494  and  _495
REMARK  210  A    between atoms: _494  and  _497
REMARK  211  A    between atoms: _497  and  _498
REMARK  212  A    between atoms: _498  and  _499
REMARK  213  A    between atoms: _499  and  _500
REMARK  214  A    between atoms: _500  and  _501
REMARK  215  A    between atoms: _505  and  _507
REMARK  216  A    between atoms: _507  and  _508
REMARK  217  A    between atoms: _507  and  _510
REMARK  218  A    between atoms: _510  and  _511
REMARK  219  A    between atoms: _516  and  _517
REMARK  220  A    between atoms: _519  and  _521
REMARK  221  A    between atoms: _521  and  _522
REMARK  222  A    between atoms: _524  and  _526
REMARK  223  A    between atoms: _526  and  _527
REMARK  224  A    between atoms: _526  and  _529
REMARK  225  A    between atoms: _529  and  _530
REMARK  226  A    between atoms: _533  and  _535
REMARK  227  A    between atoms: _535  and  _536
REMARK  228  A    between atoms: _535  and  _538
REMARK  229  A    between atoms: _538  and  _539
REMARK  230  A    between atoms: _544  and  _545
REMARK                            x       y       z     vdW  Elec       q    Type
REMARK                         _______ _______ _______ _____ _____    ______ ____
ROOT
ATOM      1  O   HOH     1      12.284   4.686  33.524  0.00  0.00    +0.000 OA
ENDROOT
TORSDOF 0
REMARK  Name = ../refined-set-2016/1lpg/1lpg_pocket.pdb
REMARK  230 active torsions:
REMARK  status: ('A' for Active; 'I' for Inactive)
REMARK    1  A    between atoms: _1  and  _5
REMARK    2  A    between atoms: _5  and  _6
REMARK    3  A    between atoms: _5  and  _8
REMARK    4  A    between atoms: _8  and  _9
REMARK    5  A    between atoms: _12  and  _14
REMARK    6  A    between atoms: _14  and  _15
REMARK    7  A    between atoms: _14  and  _17
REMARK    8  A    between atoms: _20  and  _22
REMARK    9  A    between atoms: _22  and  _23
REMARK   10  A    between atoms: _22  and  _25
REMARK   11  A    between atoms: _25  and  _26
REMARK   12  A    between atoms: _31  and  _33
REMARK   13  A    between atoms: _33  and  _34
REMARK   14  A    between atoms: _33  and  _36
REMARK   15  A    between atoms: _36  and  _37
REMARK   16  A    between atoms: _37  and  _38
REMARK   17  A    between atoms: _43  and  _45
REMARK   18  A    between atoms: _45  and  _46
REMARK   19  A    between atoms: _45  and  _48
REMARK   20  A    between atoms: _48  and  _49
REMARK   21  A    between atoms: _55  and  _57
REMARK   22  A    between atoms: _57  and  _58
REMARK   23  A    between atoms: _57  and  _60
REMARK   24  A    between atoms: _60  and  _61
REMARK   25  A    between atoms: _64  and  _66
REMARK   26  A    between atoms: _66  and  _67
REMARK   27  A    between atoms: _66  and  _69
REMARK   28  A    between atoms: _69  and  _70
REMARK   29  A    between atoms: _70  and  _71
REMARK   30  A    between atoms: _71  and  _72
REMARK   31  A    between atoms: _72  and  _73
REMARK   32  A    between atoms: _77  and  _79
REMARK   33  A    between atoms: _79  and  _80
REMARK   34  A    between atoms: _79  and  _82
REMARK   35  A    between atoms: _82  and  _83
REMARK   36  A    between atoms: _83  and  _84
REMARK   37  A    between atoms: _87  and  _89
REMARK   38  A    between atoms: _89  and  _90
REMARK   39  A    between atoms: _89  and  _92
REMARK   40  A    between atoms: _92  and  _93
REMARK   41  A    between atoms: _96  and  _98
REMARK   42  A    between atoms: _98  and  _99
REMARK   43  A    between atoms: _98  and  _101
REMARK   44  A    between atoms: _101  and  _102
REMARK   45  A    between atoms: _107  and  _108
REMARK   46  A    between atoms: _110  and  _112
REMARK   47  A    between atoms: _112  and  _113
REMARK   48  A    between atoms: _112  and  _115
REMARK   49  A    between atoms: _115  and  _116
REMARK   50  A    between atoms: _119  and  _121
REMARK   51  A    between atoms: _121  and  _122
REMARK   52  A    between atoms: _121  and  _124
REMARK   53  A    between atoms: _124  and  _125
REMARK   54  A    between atoms: _128  and  _130
REMARK   55  A    between atoms: _130  and  _131
REMARK   56  A    between atoms: _130  and  _133
REMARK   57  A    between atoms: _136  and  _138
REMARK   58  A    between atoms: _138  and  _139
REMARK   59  A    between atoms: _141  and  _143
REMARK   60  A    between atoms: _143  and  _144
REMARK   61  A    between atoms: _143  and  _146
REMARK   62  A    between atoms: _146  and  _147
REMARK   63  A    between atoms: _147  and  _148
REMARK   64  A    between atoms: _148  and  _149
REMARK   65  A    between atoms: _158  and  _160
REMARK   66  A    between atoms: _160  and  _161
REMARK   67  A    between atoms: _160  and  _163
REMARK   68  A    between atoms: _163  and  _164
REMARK   69  A    between atoms: _167  and  _169
REMARK   70  A    between atoms: _169  and  _170
REMARK   71  A    between atoms: _169  and  _172
REMARK   72  A    between atoms: _172  and  _173
REMARK   73  A    between atoms: _178  and  _180
REMARK   74  A    between atoms: _180  and  _181
REMARK   75  A    between atoms: _180  and  _183
REMARK   76  A    between atoms: _183  and  _184
REMARK   77  A    between atoms: _184  and  _185
REMARK   78  A    between atoms: _188  and  _190
REMARK   79  A    between atoms: _190  and  _191
REMARK   80  A    between atoms: _190  and  _193
REMARK   81  A    between atoms: _193  and  _194
REMARK   82  A    between atoms: _194  and  _195
REMARK   83  A    between atoms: _195  and  _196
REMARK   84  A    between atoms: _196  and  _197
REMARK   85  A    between atoms: _201  and  _203
REMARK   86  A    between atoms: _203  and  _204
REMARK   87  A    between atoms: _206  and  _208
REMARK   88  A    between atoms: _208  and  _209
REMARK   89  A    between atoms: _208  and  _211
REMARK   90  A    between atoms: _211  and  _212
REMARK   91  A    between atoms: _212  and  _213
REMARK   92  A    between atoms: _213  and  _214
REMARK   93  A    between atoms: _223  and  _225
REMARK   94  A    between atoms: _225  and  _226
REMARK   95  A    between atoms: _225  and  _228
REMARK   96  A    between atoms: _228  and  _229
REMARK   97  A    between atoms: _229  and  _230
REMARK   98  A    between atoms: _235  and  _237
REMARK   99  A    between atoms: _237  and  _238
REMARK  100  A    between atoms: _237  and  _240
REMARK  101  A    between atoms: _240  and  _241
REMARK  102  A    between atoms: _244  and  _246
REMARK  103  A    between atoms: _246  and  _247
REMARK  104  A    between atoms: _246  and  _249
REMARK  105  A    between atoms: _252  and  _254
REMARK  106  A    between atoms: _254  and  _255
REMARK  107  A    between atoms: _254  and  _257
REMARK  108  A    between atoms: _257  and  _258
REMARK  109  A    between atoms: _260  and  _262
REMARK  110  A    between atoms: _262  and  _263
REMARK  111  A    between atoms: _262  and  _265
REMARK  112  A    between atoms: _265  and  _266
REMARK  113  A    between atoms: _268  and  _270
REMARK  114  A    between atoms: _270  and  _271
REMARK  115  A    between atoms: _270  and  _273
REMARK  116  A    between atoms: _273  and  _274
REMARK  117  A    between atoms: _280  and  _282
REMARK  118  A    between atoms: _282  and  _283
REMARK  119  A    between atoms: _282  and  _285
REMARK  120  A    between atoms: _285  and  _286
REMARK  121  A    between atoms: _289  and  _291
REMARK  122  A    between atoms: _291  and  _292
REMARK  123  A    between atoms: _291  and  _294
REMARK  124  A    between atoms: _294  and  _295
REMARK  125  A    between atoms: _298  and  _300
REMARK  126  A    between atoms: _300  and  _301
REMARK  127  A    between atoms: _300  and  _303
REMARK  128  A    between atoms: _303  and  _304
REMARK  129  A    between atoms: _307  and  _309
REMARK  130  A    between atoms: _309  and  _310
REMARK  131  A    between atoms: _309  and  _312
REMARK  132  A    between atoms: _312  and  _313
REMARK  133  A    between atoms: _313  and  _314
REMARK  134  A    between atoms: _316  and  _318
REMARK  135  A    between atoms: _318  and  _319
REMARK  136  A    between atoms: _318  and  _321
REMARK  137  A    between atoms: _323  and  _325
REMARK  138  A    between atoms: _325  and  _326
REMARK  139  A    between atoms: _329  and  _331
REMARK  140  A    between atoms: _331  and  _332
REMARK  141  A    between atoms: _334  and  _336
REMARK  142  A    between atoms: _336  and  _337
REMARK  143  A    between atoms: _336  and  _339
REMARK  144  A    between atoms: _339  and  _340
REMARK  145  A    between atoms: _340  and  _341
REMARK  146  A    between atoms: _344  and  _346
REMARK  147  A    between atoms: _346  and  _347
REMARK  148  A    between atoms: _346  and  _349
REMARK  149  A    between atoms: _349  and  _350
REMARK  150  A    between atoms: _353  and  _355
REMARK  151  A    between atoms: _355  and  _356
REMARK  152  A    between atoms: _359  and  _361
REMARK  153  A    between atoms: _361  and  _362
REMARK  154  A    between atoms: _361  and  _364
REMARK  155  A    between atoms: _364  and  _365
REMARK  156  A    between atoms: _365  and  _468
REMARK  157  A    between atoms: _366  and  _368
REMARK  158  A    between atoms: _368  and  _369
REMARK  159  A    between atoms: _368  and  _371
REMARK  160  A    between atoms: _371  and  _372
REMARK  161  A    between atoms: _372  and  _373
REMARK  162  A    between atoms: _378  and  _380
REMARK  163  A    between atoms: _380  and  _381
REMARK  164  A    between atoms: _383  and  _385
REMARK  165  A    between atoms: _385  and  _386
REMARK  166  A    between atoms: _385  and  _388
REMARK  167  A    between atoms: _388  and  _389
REMARK  168  A    between atoms: _392  and  _394
REMARK  169  A    between atoms: _394  and  _395
REMARK  170  A    between atoms: _394  and  _397
REMARK  171  A    between atoms: _397  and  _398
REMARK  172  A    between atoms: _400  and  _402
REMARK  173  A    between atoms: _402  and  _403
REMARK  174  A    between atoms: _405  and  _407
REMARK  175  A    between atoms: _407  and  _408
REMARK  176  A    between atoms: _410  and  _412
REMARK  177  A    between atoms: _412  and  _413
REMARK  178  A    between atoms: _412  and  _415
REMARK  179  A    between atoms: _418  and  _420
REMARK  180  A    between atoms: _420  and  _421
REMARK  181  A    between atoms: _420  and  _423
REMARK  182  A    between atoms: _423  and  _424
REMARK  183  A    between atoms: _426  and  _428
REMARK  184  A    between atoms: _428  and  _429
REMARK  185  A    between atoms: _428  and  _431
REMARK  186  A    between atoms: _431  and  _432
REMARK  187  A    between atoms: _442  and  _444
REMARK  188  A    between atoms: _444  and  _445
REMARK  189  A    between atoms: _447  and  _449
REMARK  190  A    between atoms: _449  and  _450
REMARK  191  A    between atoms: _449  and  _452
REMARK  192  A    between atoms: _452  and  _453
REMARK  193  A    between atoms: _453  and  _454
REMARK  194  A    between atoms: _457  and  _459
REMARK  195  A    between atoms: _459  and  _460
REMARK  196  A    between atoms: _462  and  _464
REMARK  197  A    between atoms: _464  and  _465
REMARK  198  A    between atoms: _464  and  _467
REMARK  199  A    between atoms: _467  and  _468
REMARK  200  A    between atoms: _469  and  _471
REMARK  201  A    between atoms: _471  and  _472
REMARK  202  A    between atoms: _475  and  _477
REMARK  203  A    between atoms: _477  and  _478
REMARK  204  A    between atoms: _477  and  _480
REMARK  205  A    between atoms: _480  and  _481
REMARK  206  A    between atoms: _481  and  _482
REMARK  207  A    between atoms: _482  and  _483
REMARK  208  A    between atoms: _492  and  _494
REMARK  209  A    between atoms: _494  and  _495
REMARK  210  A    between atoms: _494  and  _497
REMARK  211  A    between atoms: _497  and  _498
REMARK  212  A    between atoms: _498  and  _499
REMARK  213  A    between atoms: _499  and  _500
REMARK  214  A    between atoms: _500  and  _501
REMARK  215  A    between atoms: _505  and  _507
REMARK  216  A    between atoms: _507  and  _508
REMARK  217  A    between atoms: _507  and  _510
REMARK  218  A    between atoms: _510  and  _511
REMARK  219  A    between atoms: _516  and  _517
REMARK  220  A    between atoms: _519  and  _521
REMARK  221  A    between atoms: _521  and  _522
REMARK  222  A    between atoms: _524  and  _526
REMARK  223  A    between atoms: _526  and  _527
REMARK  224  A    between atoms: _526  and  _529
REMARK  225  A    between atoms: _529  and  _530
REMARK  226  A    between atoms: _533  and  _535
REMARK  227  A    between atoms: _535  and  _536
REMARK  228  A    between atoms: _535  and  _538
REMARK  229  A    between atoms: _538  and  _539
REMARK  230  A    between atoms: _544  and  _545
REMARK                            x       y       z     vdW  Elec       q    Type
REMARK                         _______ _______ _______ _____ _____    ______ ____
ROOT
ATOM      1  O   HOH     1      10.110   3.542  32.156  0.00  0.00    +0.000 OA
ENDROOT
TORSDOF 0
REMARK  Name = ../refined-set-2016/1lpg/1lpg_pocket.pdb
REMARK  230 active torsions:
REMARK  status: ('A' for Active; 'I' for Inactive)
REMARK    1  A    between atoms: _1  and  _5
REMARK    2  A    between atoms: _5  and  _6
REMARK    3  A    between atoms: _5  and  _8
REMARK    4  A    between atoms: _8  and  _9
REMARK    5  A    between atoms: _12  and  _14
REMARK    6  A    between atoms: _14  and  _15
REMARK    7  A    between atoms: _14  and  _17
REMARK    8  A    between atoms: _20  and  _22
REMARK    9  A    between atoms: _22  and  _23
REMARK   10  A    between atoms: _22  and  _25
REMARK   11  A    between atoms: _25  and  _26
REMARK   12  A    between atoms: _31  and  _33
REMARK   13  A    between atoms: _33  and  _34
REMARK   14  A    between atoms: _33  and  _36
REMARK   15  A    between atoms: _36  and  _37
REMARK   16  A    between atoms: _37  and  _38
REMARK   17  A    between atoms: _43  and  _45
REMARK   18  A    between atoms: _45  and  _46
REMARK   19  A    between atoms: _45  and  _48
REMARK   20  A    between atoms: _48  and  _49
REMARK   21  A    between atoms: _55  and  _57
REMARK   22  A    between atoms: _57  and  _58
REMARK   23  A    between atoms: _57  and  _60
REMARK   24  A    between atoms: _60  and  _61
REMARK   25  A    between atoms: _64  and  _66
REMARK   26  A    between atoms: _66  and  _67
REMARK   27  A    between atoms: _66  and  _69
REMARK   28  A    between atoms: _69  and  _70
REMARK   29  A    between atoms: _70  and  _71
REMARK   30  A    between atoms: _71  and  _72
REMARK   31  A    between atoms: _72  and  _73
REMARK   32  A    between atoms: _77  and  _79
REMARK   33  A    between atoms: _79  and  _80
REMARK   34  A    between atoms: _79  and  _82
REMARK   35  A    between atoms: _82  and  _83
REMARK   36  A    between atoms: _83  and  _84
REMARK   37  A    between atoms: _87  and  _89
REMARK   38  A    between atoms: _89  and  _90
REMARK   39  A    between atoms: _89  and  _92
REMARK   40  A    between atoms: _92  and  _93
REMARK   41  A    between atoms: _96  and  _98
REMARK   42  A    between atoms: _98  and  _99
REMARK   43  A    between atoms: _98  and  _101
REMARK   44  A    between atoms: _101  and  _102
REMARK   45  A    between atoms: _107  and  _108
REMARK   46  A    between atoms: _110  and  _112
REMARK   47  A    between atoms: _112  and  _113
REMARK   48  A    between atoms: _112  and  _115
REMARK   49  A    between atoms: _115  and  _116
REMARK   50  A    between atoms: _119  and  _121
REMARK   51  A    between atoms: _121  and  _122
REMARK   52  A    between atoms: _121  and  _124
REMARK   53  A    between atoms: _124  and  _125
REMARK   54  A    between atoms: _128  and  _130
REMARK   55  A    between atoms: _130  and  _131
REMARK   56  A    between atoms: _130  and  _133
REMARK   57  A    between atoms: _136  and  _138
REMARK   58  A    between atoms: _138  and  _139
REMARK   59  A    between atoms: _141  and  _143
REMARK   60  A    between atoms: _143  and  _144
REMARK   61  A    between atoms: _143  and  _146
REMARK   62  A    between atoms: _146  and  _147
REMARK   63  A    between atoms: _147  and  _148
REMARK   64  A    between atoms: _148  and  _149
REMARK   65  A    between atoms: _158  and  _160
REMARK   66  A    between atoms: _160  and  _161
REMARK   67  A    between atoms: _160  and  _163
REMARK   68  A    between atoms: _163  and  _164
REMARK   69  A    between atoms: _167  and  _169
REMARK   70  A    between atoms: _169  and  _170
REMARK   71  A    between atoms: _169  and  _172
REMARK   72  A    between atoms: _172  and  _173
REMARK   73  A    between atoms: _178  and  _180
REMARK   74  A    between atoms: _180  and  _181
REMARK   75  A    between atoms: _180  and  _183
REMARK   76  A    between atoms: _183  and  _184
REMARK   77  A    between atoms: _184  and  _185
REMARK   78  A    between atoms: _188  and  _190
REMARK   79  A    between atoms: _190  and  _191
REMARK   80  A    between atoms: _190  and  _193
REMARK   81  A    between atoms: _193  and  _194
REMARK   82  A    between atoms: _194  and  _195
REMARK   83  A    between atoms: _195  and  _196
REMARK   84  A    between atoms: _196  and  _197
REMARK   85  A    between atoms: _201  and  _203
REMARK   86  A    between atoms: _203  and  _204
REMARK   87  A    between atoms: _206  and  _208
REMARK   88  A    between atoms: _208  and  _209
REMARK   89  A    between atoms: _208  and  _211
REMARK   90  A    between atoms: _211  and  _212
REMARK   91  A    between atoms: _212  and  _213
REMARK   92  A    between atoms: _213  and  _214
REMARK   93  A    between atoms: _223  and  _225
REMARK   94  A    between atoms: _225  and  _226
REMARK   95  A    between atoms: _225  and  _228
REMARK   96  A    between atoms: _228  and  _229
REMARK   97  A    between atoms: _229  and  _230
REMARK   98  A    between atoms: _235  and  _237
REMARK   99  A    between atoms: _237  and  _238
REMARK  100  A    between atoms: _237  and  _240
REMARK  101  A    between atoms: _240  and  _241
REMARK  102  A    between atoms: _244  and  _246
REMARK  103  A    between atoms: _246  and  _247
REMARK  104  A    between atoms: _246  and  _249
REMARK  105  A    between atoms: _252  and  _254
REMARK  106  A    between atoms: _254  and  _255
REMARK  107  A    between atoms: _254  and  _257
REMARK  108  A    between atoms: _257  and  _258
REMARK  109  A    between atoms: _260  and  _262
REMARK  110  A    between atoms: _262  and  _263
REMARK  111  A    between atoms: _262  and  _265
REMARK  112  A    between atoms: _265  and  _266
REMARK  113  A    between atoms: _268  and  _270
REMARK  114  A    between atoms: _270  and  _271
REMARK  115  A    between atoms: _270  and  _273
REMARK  116  A    between atoms: _273  and  _274
REMARK  117  A    between atoms: _280  and  _282
REMARK  118  A    between atoms: _282  and  _283
REMARK  119  A    between atoms: _282  and  _285
REMARK  120  A    between atoms: _285  and  _286
REMARK  121  A    between atoms: _289  and  _291
REMARK  122  A    between atoms: _291  and  _292
REMARK  123  A    between atoms: _291  and  _294
REMARK  124  A    between atoms: _294  and  _295
REMARK  125  A    between atoms: _298  and  _300
REMARK  126  A    between atoms: _300  and  _301
REMARK  127  A    between atoms: _300  and  _303
REMARK  128  A    between atoms: _303  and  _304
REMARK  129  A    between atoms: _307  and  _309
REMARK  130  A    between atoms: _309  and  _310
REMARK  131  A    between atoms: _309  and  _312
REMARK  132  A    between atoms: _312  and  _313
REMARK  133  A    between atoms: _313  and  _314
REMARK  134  A    between atoms: _316  and  _318
REMARK  135  A    between atoms: _318  and  _319
REMARK  136  A    between atoms: _318  and  _321
REMARK  137  A    between atoms: _323  and  _325
REMARK  138  A    between atoms: _325  and  _326
REMARK  139  A    between atoms: _329  and  _331
REMARK  140  A    between atoms: _331  and  _332
REMARK  141  A    between atoms: _334  and  _336
REMARK  142  A    between atoms: _336  and  _337
REMARK  143  A    between atoms: _336  and  _339
REMARK  144  A    between atoms: _339  and  _340
REMARK  145  A    between atoms: _340  and  _341
REMARK  146  A    between atoms: _344  and  _346
REMARK  147  A    between atoms: _346  and  _347
REMARK  148  A    between atoms: _346  and  _349
REMARK  149  A    between atoms: _349  and  _350
REMARK  150  A    between atoms: _353  and  _355
REMARK  151  A    between atoms: _355  and  _356
REMARK  152  A    between atoms: _359  and  _361
REMARK  153  A    between atoms: _361  and  _362
REMARK  154  A    between atoms: _361  and  _364
REMARK  155  A    between atoms: _364  and  _365
REMARK  156  A    between atoms: _365  and  _468
REMARK  157  A    between atoms: _366  and  _368
REMARK  158  A    between atoms: _368  and  _369
REMARK  159  A    between atoms: _368  and  _371
REMARK  160  A    between atoms: _371  and  _372
REMARK  161  A    between atoms: _372  and  _373
REMARK  162  A    between atoms: _378  and  _380
REMARK  163  A    between atoms: _380  and  _381
REMARK  164  A    between atoms: _383  and  _385
REMARK  165  A    between atoms: _385  and  _386
REMARK  166  A    between atoms: _385  and  _388
REMARK  167  A    between atoms: _388  and  _389
REMARK  168  A    between atoms: _392  and  _394
REMARK  169  A    between atoms: _394  and  _395
REMARK  170  A    between atoms: _394  and  _397
REMARK  171  A    between atoms: _397  and  _398
REMARK  172  A    between atoms: _400  and  _402
REMARK  173  A    between atoms: _402  and  _403
REMARK  174  A    between atoms: _405  and  _407
REMARK  175  A    between atoms: _407  and  _408
REMARK  176  A    between atoms: _410  and  _412
REMARK  177  A    between atoms: _412  and  _413
REMARK  178  A    between atoms: _412  and  _415
REMARK  179  A    between atoms: _418  and  _420
REMARK  180  A    between atoms: _420  and  _421
REMARK  181  A    between atoms: _420  and  _423
REMARK  182  A    between atoms: _423  and  _424
REMARK  183  A    between atoms: _426  and  _428
REMARK  184  A    between atoms: _428  and  _429
REMARK  185  A    between atoms: _428  and  _431
REMARK  186  A    between atoms: _431  and  _432
REMARK  187  A    between atoms: _442  and  _444
REMARK  188  A    between atoms: _444  and  _445
REMARK  189  A    between atoms: _447  and  _449
REMARK  190  A    between atoms: _449  and  _450
REMARK  191  A    between atoms: _449  and  _452
REMARK  192  A    between atoms: _452  and  _453
REMARK  193  A    between atoms: _453  and  _454
REMARK  194  A    between atoms: _457  and  _459
REMARK  195  A    between atoms: _459  and  _460
REMARK  196  A    between atoms: _462  and  _464
REMARK  197  A    between atoms: _464  and  _465
REMARK  198  A    between atoms: _464  and  _467
REMARK  199  A    between atoms: _467  and  _468
REMARK  200  A    between atoms: _469  and  _471
REMARK  201  A    between atoms: _471  and  _472
REMARK  202  A    between atoms: _475  and  _477
REMARK  203  A    between atoms: _477  and  _478
REMARK  204  A    between atoms: _477  and  _480
REMARK  205  A    between atoms: _480  and  _481
REMARK  206  A    between atoms: _481  and  _482
REMARK  207  A    between atoms: _482  and  _483
REMARK  208  A    between atoms: _492  and  _494
REMARK  209  A    between atoms: _494  and  _495
REMARK  210  A    between atoms: _494  and  _497
REMARK  211  A    between atoms: _497  and  _498
REMARK  212  A    between atoms: _498  and  _499
REMARK  213  A    between atoms: _499  and  _500
REMARK  214  A    between atoms: _500  and  _501
REMARK  215  A    between atoms: _505  and  _507
REMARK  216  A    between atoms: _507  and  _508
REMARK  217  A    between atoms: _507  and  _510
REMARK  218  A    between atoms: _510  and  _511
REMARK  219  A    between atoms: _516  and  _517
REMARK  220  A    between atoms: _519  and  _521
REMARK  221  A    between atoms: _521  and  _522
REMARK  222  A    between atoms: _524  and  _526
REMARK  223  A    between atoms: _526  and  _527
REMARK  224  A    between atoms: _526  and  _529
REMARK  225  A    between atoms: _529  and  _530
REMARK  226  A    between atoms: _533  and  _535
REMARK  227  A    between atoms: _535  and  _536
REMARK  228  A    between atoms: _535  and  _538
REMARK  229  A    between atoms: _538  and  _539
REMARK  230  A    between atoms: _544  and  _545
REMARK                            x       y       z     vdW  Elec       q    Type
REMARK                         _______ _______ _______ _____ _____    ______ ____
ROOT
ATOM      1  O   HOH     1      10.040  -1.396  25.396  0.00  0.00    +0.000 OA
ENDROOT
TORSDOF 0
REMARK  Name = ../refined-set-2016/1lpg/1lpg_pocket.pdb
REMARK  230 active torsions:
REMARK  status: ('A' for Active; 'I' for Inactive)
REMARK    1  A    between atoms: _1  and  _5
REMARK    2  A    between atoms: _5  and  _6
REMARK    3  A    between atoms: _5  and  _8
REMARK    4  A    between atoms: _8  and  _9
REMARK    5  A    between atoms: _12  and  _14
REMARK    6  A    between atoms: _14  and  _15
REMARK    7  A    between atoms: _14  and  _17
REMARK    8  A    between atoms: _20  and  _22
REMARK    9  A    between atoms: _22  and  _23
REMARK   10  A    between atoms: _22  and  _25
REMARK   11  A    between atoms: _25  and  _26
REMARK   12  A    between atoms: _31  and  _33
REMARK   13  A    between atoms: _33  and  _34
REMARK   14  A    between atoms: _33  and  _36
REMARK   15  A    between atoms: _36  and  _37
REMARK   16  A    between atoms: _37  and  _38
REMARK   17  A    between atoms: _43  and  _45
REMARK   18  A    between atoms: _45  and  _46
REMARK   19  A    between atoms: _45  and  _48
REMARK   20  A    between atoms: _48  and  _49
REMARK   21  A    between atoms: _55  and  _57
REMARK   22  A    between atoms: _57  and  _58
REMARK   23  A    between atoms: _57  and  _60
REMARK   24  A    between atoms: _60  and  _61
REMARK   25  A    between atoms: _64  and  _66
REMARK   26  A    between atoms: _66  and  _67
REMARK   27  A    between atoms: _66  and  _69
REMARK   28  A    between atoms: _69  and  _70
REMARK   29  A    between atoms: _70  and  _71
REMARK   30  A    between atoms: _71  and  _72
REMARK   31  A    between atoms: _72  and  _73
REMARK   32  A    between atoms: _77  and  _79
REMARK   33  A    between atoms: _79  and  _80
REMARK   34  A    between atoms: _79  and  _82
REMARK   35  A    between atoms: _82  and  _83
REMARK   36  A    between atoms: _83  and  _84
REMARK   37  A    between atoms: _87  and  _89
REMARK   38  A    between atoms: _89  and  _90
REMARK   39  A    between atoms: _89  and  _92
REMARK   40  A    between atoms: _92  and  _93
REMARK   41  A    between atoms: _96  and  _98
REMARK   42  A    between atoms: _98  and  _99
REMARK   43  A    between atoms: _98  and  _101
REMARK   44  A    between atoms: _101  and  _102
REMARK   45  A    between atoms: _107  and  _108
REMARK   46  A    between atoms: _110  and  _112
REMARK   47  A    between atoms: _112  and  _113
REMARK   48  A    between atoms: _112  and  _115
REMARK   49  A    between atoms: _115  and  _116
REMARK   50  A    between atoms: _119  and  _121
REMARK   51  A    between atoms: _121  and  _122
REMARK   52  A    between atoms: _121  and  _124
REMARK   53  A    between atoms: _124  and  _125
REMARK   54  A    between atoms: _128  and  _130
REMARK   55  A    between atoms: _130  and  _131
REMARK   56  A    between atoms: _130  and  _133
REMARK   57  A    between atoms: _136  and  _138
REMARK   58  A    between atoms: _138  and  _139
REMARK   59  A    between atoms: _141  and  _143
REMARK   60  A    between atoms: _143  and  _144
REMARK   61  A    between atoms: _143  and  _146
REMARK   62  A    between atoms: _146  and  _147
REMARK   63  A    between atoms: _147  and  _148
REMARK   64  A    between atoms: _148  and  _149
REMARK   65  A    between atoms: _158  and  _160
REMARK   66  A    between atoms: _160  and  _161
REMARK   67  A    between atoms: _160  and  _163
REMARK   68  A    between atoms: _163  and  _164
REMARK   69  A    between atoms: _167  and  _169
REMARK   70  A    between atoms: _169  and  _170
REMARK   71  A    between atoms: _169  and  _172
REMARK   72  A    between atoms: _172  and  _173
REMARK   73  A    between atoms: _178  and  _180
REMARK   74  A    between atoms: _180  and  _181
REMARK   75  A    between atoms: _180  and  _183
REMARK   76  A    between atoms: _183  and  _184
REMARK   77  A    between atoms: _184  and  _185
REMARK   78  A    between atoms: _188  and  _190
REMARK   79  A    between atoms: _190  and  _191
REMARK   80  A    between atoms: _190  and  _193
REMARK   81  A    between atoms: _193  and  _194
REMARK   82  A    between atoms: _194  and  _195
REMARK   83  A    between atoms: _195  and  _196
REMARK   84  A    between atoms: _196  and  _197
REMARK   85  A    between atoms: _201  and  _203
REMARK   86  A    between atoms: _203  and  _204
REMARK   87  A    between atoms: _206  and  _208
REMARK   88  A    between atoms: _208  and  _209
REMARK   89  A    between atoms: _208  and  _211
REMARK   90  A    between atoms: _211  and  _212
REMARK   91  A    between atoms: _212  and  _213
REMARK   92  A    between atoms: _213  and  _214
REMARK   93  A    between atoms: _223  and  _225
REMARK   94  A    between atoms: _225  and  _226
REMARK   95  A    between atoms: _225  and  _228
REMARK   96  A    between atoms: _228  and  _229
REMARK   97  A    between atoms: _229  and  _230
REMARK   98  A    between atoms: _235  and  _237
REMARK   99  A    between atoms: _237  and  _238
REMARK  100  A    between atoms: _237  and  _240
REMARK  101  A    between atoms: _240  and  _241
REMARK  102  A    between atoms: _244  and  _246
REMARK  103  A    between atoms: _246  and  _247
REMARK  104  A    between atoms: _246  and  _249
REMARK  105  A    between atoms: _252  and  _254
REMARK  106  A    between atoms: _254  and  _255
REMARK  107  A    between atoms: _254  and  _257
REMARK  108  A    between atoms: _257  and  _258
REMARK  109  A    between atoms: _260  and  _262
REMARK  110  A    between atoms: _262  and  _263
REMARK  111  A    between atoms: _262  and  _265
REMARK  112  A    between atoms: _265  and  _266
REMARK  113  A    between atoms: _268  and  _270
REMARK  114  A    between atoms: _270  and  _271
REMARK  115  A    between atoms: _270  and  _273
REMARK  116  A    between atoms: _273  and  _274
REMARK  117  A    between atoms: _280  and  _282
REMARK  118  A    between atoms: _282  and  _283
REMARK  119  A    between atoms: _282  and  _285
REMARK  120  A    between atoms: _285  and  _286
REMARK  121  A    between atoms: _289  and  _291
REMARK  122  A    between atoms: _291  and  _292
REMARK  123  A    between atoms: _291  and  _294
REMARK  124  A    between atoms: _294  and  _295
REMARK  125  A    between atoms: _298  and  _300
REMARK  126  A    between atoms: _300  and  _301
REMARK  127  A    between atoms: _300  and  _303
REMARK  128  A    between atoms: _303  and  _304
REMARK  129  A    between atoms: _307  and  _309
REMARK  130  A    between atoms: _309  and  _310
REMARK  131  A    between atoms: _309  and  _312
REMARK  132  A    between atoms: _312  and  _313
REMARK  133  A    between atoms: _313  and  _314
REMARK  134  A    between atoms: _316  and  _318
REMARK  135  A    between atoms: _318  and  _319
REMARK  136  A    between atoms: _318  and  _321
REMARK  137  A    between atoms: _323  and  _325
REMARK  138  A    between atoms: _325  and  _326
REMARK  139  A    between atoms: _329  and  _331
REMARK  140  A    between atoms: _331  and  _332
REMARK  141  A    between atoms: _334  and  _336
REMARK  142  A    between atoms: _336  and  _337
REMARK  143  A    between atoms: _336  and  _339
REMARK  144  A    between atoms: _339  and  _340
REMARK  145  A    between atoms: _340  and  _341
REMARK  146  A    between atoms: _344  and  _346
REMARK  147  A    between atoms: _346  and  _347
REMARK  148  A    between atoms: _346  and  _349
REMARK  149  A    between atoms: _349  and  _350
REMARK  150  A    between atoms: _353  and  _355
REMARK  151  A    between atoms: _355  and  _356
REMARK  152  A    between atoms: _359  and  _361
REMARK  153  A    between atoms: _361  and  _362
REMARK  154  A    between atoms: _361  and  _364
REMARK  155  A    between atoms: _364  and  _365
REMARK  156  A    between atoms: _365  and  _468
REMARK  157  A    between atoms: _366  and  _368
REMARK  158  A    between atoms: _368  and  _369
REMARK  159  A    between atoms: _368  and  _371
REMARK  160  A    between atoms: _371  and  _372
REMARK  161  A    between atoms: _372  and  _373
REMARK  162  A    between atoms: _378  and  _380
REMARK  163  A    between atoms: _380  and  _381
REMARK  164  A    between atoms: _383  and  _385
REMARK  165  A    between atoms: _385  and  _386
REMARK  166  A    between atoms: _385  and  _388
REMARK  167  A    between atoms: _388  and  _389
REMARK  168  A    between atoms: _392  and  _394
REMARK  169  A    between atoms: _394  and  _395
REMARK  170  A    between atoms: _394  and  _397
REMARK  171  A    between atoms: _397  and  _398
REMARK  172  A    between atoms: _400  and  _402
REMARK  173  A    between atoms: _402  and  _403
REMARK  174  A    between atoms: _405  and  _407
REMARK  175  A    between atoms: _407  and  _408
REMARK  176  A    between atoms: _410  and  _412
REMARK  177  A    between atoms: _412  and  _413
REMARK  178  A    between atoms: _412  and  _415
REMARK  179  A    between atoms: _418  and  _420
REMARK  180  A    between atoms: _420  and  _421
REMARK  181  A    between atoms: _420  and  _423
REMARK  182  A    between atoms: _423  and  _424
REMARK  183  A    between atoms: _426  and  _428
REMARK  184  A    between atoms: _428  and  _429
REMARK  185  A    between atoms: _428  and  _431
REMARK  186  A    between atoms: _431  and  _432
REMARK  187  A    between atoms: _442  and  _444
REMARK  188  A    between atoms: _444  and  _445
REMARK  189  A    between atoms: _447  and  _449
REMARK  190  A    between atoms: _449  and  _450
REMARK  191  A    between atoms: _449  and  _452
REMARK  192  A    between atoms: _452  and  _453
REMARK  193  A    between atoms: _453  and  _454
REMARK  194  A    between atoms: _457  and  _459
REMARK  195  A    between atoms: _459  and  _460
REMARK  196  A    between atoms: _462  and  _464
REMARK  197  A    between atoms: _464  and  _465
REMARK  198  A    between atoms: _464  and  _467
REMARK  199  A    between atoms: _467  and  _468
REMARK  200  A    between atoms: _469  and  _471
REMARK  201  A    between atoms: _471  and  _472
REMARK  202  A    between atoms: _475  and  _477
REMARK  203  A    between atoms: _477  and  _478
REMARK  204  A    between atoms: _477  and  _480
REMARK  205  A    between atoms: _480  and  _481
REMARK  206  A    between atoms: _481  and  _482
REMARK  207  A    between atoms: _482  and  _483
REMARK  208  A    between atoms: _492  and  _494
REMARK  209  A    between atoms: _494  and  _495
REMARK  210  A    between atoms: _494  and  _497
REMARK  211  A    between atoms: _497  and  _498
REMARK  212  A    between atoms: _498  and  _499
REMARK  213  A    between atoms: _499  and  _500
REMARK  214  A    between atoms: _500  and  _501
REMARK  215  A    between atoms: _505  and  _507
REMARK  216  A    between atoms: _507  and  _508
REMARK  217  A    between atoms: _507  and  _510
REMARK  218  A    between atoms: _510  and  _511
REMARK  219  A    between atoms: _516  and  _517
REMARK  220  A    between atoms: _519  and  _521
REMARK  221  A    between atoms: _521  and  _522
REMARK  222  A    between atoms: _524  and  _526
REMARK  223  A    between atoms: _526  and  _527
REMARK  224  A    between atoms: _526  and  _529
REMARK  225  A    between atoms: _529  and  _530
REMARK  226  A    between atoms: _533  and  _535
REMARK  227  A    between atoms: _535  and  _536
REMARK  228  A    between atoms: _535  and  _538
REMARK  229  A    between atoms: _538  and  _539
REMARK  230  A    between atoms: _544  and  _545
REMARK                            x       y       z     vdW  Elec       q    Type
REMARK                         _______ _______ _______ _____ _____    ______ ____
ROOT
ATOM      1  O   HOH     1      16.192   4.175  18.443  0.00  0.00    +0.000 OA
ENDROOT
TORSDOF 0
REMARK  Name = ../refined-set-2016/1lpg/1lpg_pocket.pdb
REMARK  230 active torsions:
REMARK  status: ('A' for Active; 'I' for Inactive)
REMARK    1  A    between atoms: _1  and  _5
REMARK    2  A    between atoms: _5  and  _6
REMARK    3  A    between atoms: _5  and  _8
REMARK    4  A    between atoms: _8  and  _9
REMARK    5  A    between atoms: _12  and  _14
REMARK    6  A    between atoms: _14  and  _15
REMARK    7  A    between atoms: _14  and  _17
REMARK    8  A    between atoms: _20  and  _22
REMARK    9  A    between atoms: _22  and  _23
REMARK   10  A    between atoms: _22  and  _25
REMARK   11  A    between atoms: _25  and  _26
REMARK   12  A    between atoms: _31  and  _33
REMARK   13  A    between atoms: _33  and  _34
REMARK   14  A    between atoms: _33  and  _36
REMARK   15  A    between atoms: _36  and  _37
REMARK   16  A    between atoms: _37  and  _38
REMARK   17  A    between atoms: _43  and  _45
REMARK   18  A    between atoms: _45  and  _46
REMARK   19  A    between atoms: _45  and  _48
REMARK   20  A    between atoms: _48  and  _49
REMARK   21  A    between atoms: _55  and  _57
REMARK   22  A    between atoms: _57  and  _58
REMARK   23  A    between atoms: _57  and  _60
REMARK   24  A    between atoms: _60  and  _61
REMARK   25  A    between atoms: _64  and  _66
REMARK   26  A    between atoms: _66  and  _67
REMARK   27  A    between atoms: _66  and  _69
REMARK   28  A    between atoms: _69  and  _70
REMARK   29  A    between atoms: _70  and  _71
REMARK   30  A    between atoms: _71  and  _72
REMARK   31  A    between atoms: _72  and  _73
REMARK   32  A    between atoms: _77  and  _79
REMARK   33  A    between atoms: _79  and  _80
REMARK   34  A    between atoms: _79  and  _82
REMARK   35  A    between atoms: _82  and  _83
REMARK   36  A    between atoms: _83  and  _84
REMARK   37  A    between atoms: _87  and  _89
REMARK   38  A    between atoms: _89  and  _90
REMARK   39  A    between atoms: _89  and  _92
REMARK   40  A    between atoms: _92  and  _93
REMARK   41  A    between atoms: _96  and  _98
REMARK   42  A    between atoms: _98  and  _99
REMARK   43  A    between atoms: _98  and  _101
REMARK   44  A    between atoms: _101  and  _102
REMARK   45  A    between atoms: _107  and  _108
REMARK   46  A    between atoms: _110  and  _112
REMARK   47  A    between atoms: _112  and  _113
REMARK   48  A    between atoms: _112  and  _115
REMARK   49  A    between atoms: _115  and  _116
REMARK   50  A    between atoms: _119  and  _121
REMARK   51  A    between atoms: _121  and  _122
REMARK   52  A    between atoms: _121  and  _124
REMARK   53  A    between atoms: _124  and  _125
REMARK   54  A    between atoms: _128  and  _130
REMARK   55  A    between atoms: _130  and  _131
REMARK   56  A    between atoms: _130  and  _133
REMARK   57  A    between atoms: _136  and  _138
REMARK   58  A    between atoms: _138  and  _139
REMARK   59  A    between atoms: _141  and  _143
REMARK   60  A    between atoms: _143  and  _144
REMARK   61  A    between atoms: _143  and  _146
REMARK   62  A    between atoms: _146  and  _147
REMARK   63  A    between atoms: _147  and  _148
REMARK   64  A    between atoms: _148  and  _149
REMARK   65  A    between atoms: _158  and  _160
REMARK   66  A    between atoms: _160  and  _161
REMARK   67  A    between atoms: _160  and  _163
REMARK   68  A    between atoms: _163  and  _164
REMARK   69  A    between atoms: _167  and  _169
REMARK   70  A    between atoms: _169  and  _170
REMARK   71  A    between atoms: _169  and  _172
REMARK   72  A    between atoms: _172  and  _173
REMARK   73  A    between atoms: _178  and  _180
REMARK   74  A    between atoms: _180  and  _181
REMARK   75  A    between atoms: _180  and  _183
REMARK   76  A    between atoms: _183  and  _184
REMARK   77  A    between atoms: _184  and  _185
REMARK   78  A    between atoms: _188  and  _190
REMARK   79  A    between atoms: _190  and  _191
REMARK   80  A    between atoms: _190  and  _193
REMARK   81  A    between atoms: _193  and  _194
REMARK   82  A    between atoms: _194  and  _195
REMARK   83  A    between atoms: _195  and  _196
REMARK   84  A    between atoms: _196  and  _197
REMARK   85  A    between atoms: _201  and  _203
REMARK   86  A    between atoms: _203  and  _204
REMARK   87  A    between atoms: _206  and  _208
REMARK   88  A    between atoms: _208  and  _209
REMARK   89  A    between atoms: _208  and  _211
REMARK   90  A    between atoms: _211  and  _212
REMARK   91  A    between atoms: _212  and  _213
REMARK   92  A    between atoms: _213  and  _214
REMARK   93  A    between atoms: _223  and  _225
REMARK   94  A    between atoms: _225  and  _226
REMARK   95  A    between atoms: _225  and  _228
REMARK   96  A    between atoms: _228  and  _229
REMARK   97  A    between atoms: _229  and  _230
REMARK   98  A    between atoms: _235  and  _237
REMARK   99  A    between atoms: _237  and  _238
REMARK  100  A    between atoms: _237  and  _240
REMARK  101  A    between atoms: _240  and  _241
REMARK  102  A    between atoms: _244  and  _246
REMARK  103  A    between atoms: _246  and  _247
REMARK  104  A    between atoms: _246  and  _249
REMARK  105  A    between atoms: _252  and  _254
REMARK  106  A    between atoms: _254  and  _255
REMARK  107  A    between atoms: _254  and  _257
REMARK  108  A    between atoms: _257  and  _258
REMARK  109  A    between atoms: _260  and  _262
REMARK  110  A    between atoms: _262  and  _263
REMARK  111  A    between atoms: _262  and  _265
REMARK  112  A    between atoms: _265  and  _266
REMARK  113  A    between atoms: _268  and  _270
REMARK  114  A    between atoms: _270  and  _271
REMARK  115  A    between atoms: _270  and  _273
REMARK  116  A    between atoms: _273  and  _274
REMARK  117  A    between atoms: _280  and  _282
REMARK  118  A    between atoms: _282  and  _283
REMARK  119  A    between atoms: _282  and  _285
REMARK  120  A    between atoms: _285  and  _286
REMARK  121  A    between atoms: _289  and  _291
REMARK  122  A    between atoms: _291  and  _292
REMARK  123  A    between atoms: _291  and  _294
REMARK  124  A    between atoms: _294  and  _295
REMARK  125  A    between atoms: _298  and  _300
REMARK  126  A    between atoms: _300  and  _301
REMARK  127  A    between atoms: _300  and  _303
REMARK  128  A    between atoms: _303  and  _304
REMARK  129  A    between atoms: _307  and  _309
REMARK  130  A    between atoms: _309  and  _310
REMARK  131  A    between atoms: _309  and  _312
REMARK  132  A    between atoms: _312  and  _313
REMARK  133  A    between atoms: _313  and  _314
REMARK  134  A    between atoms: _316  and  _318
REMARK  135  A    between atoms: _318  and  _319
REMARK  136  A    between atoms: _318  and  _321
REMARK  137  A    between atoms: _323  and  _325
REMARK  138  A    between atoms: _325  and  _326
REMARK  139  A    between atoms: _329  and  _331
REMARK  140  A    between atoms: _331  and  _332
REMARK  141  A    between atoms: _334  and  _336
REMARK  142  A    between atoms: _336  and  _337
REMARK  143  A    between atoms: _336  and  _339
REMARK  144  A    between atoms: _339  and  _340
REMARK  145  A    between atoms: _340  and  _341
REMARK  146  A    between atoms: _344  and  _346
REMARK  147  A    between atoms: _346  and  _347
REMARK  148  A    between atoms: _346  and  _349
REMARK  149  A    between atoms: _349  and  _350
REMARK  150  A    between atoms: _353  and  _355
REMARK  151  A    between atoms: _355  and  _356
REMARK  152  A    between atoms: _359  and  _361
REMARK  153  A    between atoms: _361  and  _362
REMARK  154  A    between atoms: _361  and  _364
REMARK  155  A    between atoms: _364  and  _365
REMARK  156  A    between atoms: _365  and  _468
REMARK  157  A    between atoms: _366  and  _368
REMARK  158  A    between atoms: _368  and  _369
REMARK  159  A    between atoms: _368  and  _371
REMARK  160  A    between atoms: _371  and  _372
REMARK  161  A    between atoms: _372  and  _373
REMARK  162  A    between atoms: _378  and  _380
REMARK  163  A    between atoms: _380  and  _381
REMARK  164  A    between atoms: _383  and  _385
REMARK  165  A    between atoms: _385  and  _386
REMARK  166  A    between atoms: _385  and  _388
REMARK  167  A    between atoms: _388  and  _389
REMARK  168  A    between atoms: _392  and  _394
REMARK  169  A    between atoms: _394  and  _395
REMARK  170  A    between atoms: _394  and  _397
REMARK  171  A    between atoms: _397  and  _398
REMARK  172  A    between atoms: _400  and  _402
REMARK  173  A    between atoms: _402  and  _403
REMARK  174  A    between atoms: _405  and  _407
REMARK  175  A    between atoms: _407  and  _408
REMARK  176  A    between atoms: _410  and  _412
REMARK  177  A    between atoms: _412  and  _413
REMARK  178  A    between atoms: _412  and  _415
REMARK  179  A    between atoms: _418  and  _420
REMARK  180  A    between atoms: _420  and  _421
REMARK  181  A    between atoms: _420  and  _423
REMARK  182  A    between atoms: _423  and  _424
REMARK  183  A    between atoms: _426  and  _428
REMARK  184  A    between atoms: _428  and  _429
REMARK  185  A    between atoms: _428  and  _431
REMARK  186  A    between atoms: _431  and  _432
REMARK  187  A    between atoms: _442  and  _444
REMARK  188  A    between atoms: _444  and  _445
REMARK  189  A    between atoms: _447  and  _449
REMARK  190  A    between atoms: _449  and  _450
REMARK  191  A    between atoms: _449  and  _452
REMARK  192  A    between atoms: _452  and  _453
REMARK  193  A    between atoms: _453  and  _454
REMARK  194  A    between atoms: _457  and  _459
REMARK  195  A    between atoms: _459  and  _460
REMARK  196  A    between atoms: _462  and  _464
REMARK  197  A    between atoms: _464  and  _465
REMARK  198  A    between atoms: _464  and  _467
REMARK  199  A    between atoms: _467  and  _468
REMARK  200  A    between atoms: _469  and  _471
REMARK  201  A    between atoms: _471  and  _472
REMARK  202  A    between atoms: _475  and  _477
REMARK  203  A    between atoms: _477  and  _478
REMARK  204  A    between atoms: _477  and  _480
REMARK  205  A    between atoms: _480  and  _481
REMARK  206  A    between atoms: _481  and  _482
REMARK  207  A    between atoms: _482  and  _483
REMARK  208  A    between atoms: _492  and  _494
REMARK  209  A    between atoms: _494  and  _495
REMARK  210  A    between atoms: _494  and  _497
REMARK  211  A    between atoms: _497  and  _498
REMARK  212  A    between atoms: _498  and  _499
REMARK  213  A    between atoms: _499  and  _500
REMARK  214  A    between atoms: _500  and  _501
REMARK  215  A    between atoms: _505  and  _507
REMARK  216  A    between atoms: _507  and  _508
REMARK  217  A    between atoms: _507  and  _510
REMARK  218  A    between atoms: _510  and  _511
REMARK  219  A    between atoms: _516  and  _517
REMARK  220  A    between atoms: _519  and  _521
REMARK  221  A    between atoms: _521  and  _522
REMARK  222  A    between atoms: _524  and  _526
REMARK  223  A    between atoms: _526  and  _527
REMARK  224  A    between atoms: _526  and  _529
REMARK  225  A    between atoms: _529  and  _530
REMARK  226  A    between atoms: _533  and  _535
REMARK  227  A    between atoms: _535  and  _536
REMARK  228  A    between atoms: _535  and  _538
REMARK  229  A    between atoms: _538  and  _539
REMARK  230  A    between atoms: _544  and  _545
REMARK                            x       y       z     vdW  Elec       q    Type
REMARK                         _______ _______ _______ _____ _____    ______ ____
ROOT
ATOM      1  O   HOH     1       9.661   0.868  26.636  0.00  0.00    +0.000 OA
ENDROOT
TORSDOF 0
REMARK  Name = ../refined-set-2016/1lpg/1lpg_pocket.pdb
REMARK  230 active torsions:
REMARK  status: ('A' for Active; 'I' for Inactive)
REMARK    1  A    between atoms: _1  and  _5
REMARK    2  A    between atoms: _5  and  _6
REMARK    3  A    between atoms: _5  and  _8
REMARK    4  A    between atoms: _8  and  _9
REMARK    5  A    between atoms: _12  and  _14
REMARK    6  A    between atoms: _14  and  _15
REMARK    7  A    between atoms: _14  and  _17
REMARK    8  A    between atoms: _20  and  _22
REMARK    9  A    between atoms: _22  and  _23
REMARK   10  A    between atoms: _22  and  _25
REMARK   11  A    between atoms: _25  and  _26
REMARK   12  A    between atoms: _31  and  _33
REMARK   13  A    between atoms: _33  and  _34
REMARK   14  A    between atoms: _33  and  _36
REMARK   15  A    between atoms: _36  and  _37
REMARK   16  A    between atoms: _37  and  _38
REMARK   17  A    between atoms: _43  and  _45
REMARK   18  A    between atoms: _45  and  _46
REMARK   19  A    between atoms: _45  and  _48
REMARK   20  A    between atoms: _48  and  _49
REMARK   21  A    between atoms: _55  and  _57
REMARK   22  A    between atoms: _57  and  _58
REMARK   23  A    between atoms: _57  and  _60
REMARK   24  A    between atoms: _60  and  _61
REMARK   25  A    between atoms: _64  and  _66
REMARK   26  A    between atoms: _66  and  _67
REMARK   27  A    between atoms: _66  and  _69
REMARK   28  A    between atoms: _69  and  _70
REMARK   29  A    between atoms: _70  and  _71
REMARK   30  A    between atoms: _71  and  _72
REMARK   31  A    between atoms: _72  and  _73
REMARK   32  A    between atoms: _77  and  _79
REMARK   33  A    between atoms: _79  and  _80
REMARK   34  A    between atoms: _79  and  _82
REMARK   35  A    between atoms: _82  and  _83
REMARK   36  A    between atoms: _83  and  _84
REMARK   37  A    between atoms: _87  and  _89
REMARK   38  A    between atoms: _89  and  _90
REMARK   39  A    between atoms: _89  and  _92
REMARK   40  A    between atoms: _92  and  _93
REMARK   41  A    between atoms: _96  and  _98
REMARK   42  A    between atoms: _98  and  _99
REMARK   43  A    between atoms: _98  and  _101
REMARK   44  A    between atoms: _101  and  _102
REMARK   45  A    between atoms: _107  and  _108
REMARK   46  A    between atoms: _110  and  _112
REMARK   47  A    between atoms: _112  and  _113
REMARK   48  A    between atoms: _112  and  _115
REMARK   49  A    between atoms: _115  and  _116
REMARK   50  A    between atoms: _119  and  _121
REMARK   51  A    between atoms: _121  and  _122
REMARK   52  A    between atoms: _121  and  _124
REMARK   53  A    between atoms: _124  and  _125
REMARK   54  A    between atoms: _128  and  _130
REMARK   55  A    between atoms: _130  and  _131
REMARK   56  A    between atoms: _130  and  _133
REMARK   57  A    between atoms: _136  and  _138
REMARK   58  A    between atoms: _138  and  _139
REMARK   59  A    between atoms: _141  and  _143
REMARK   60  A    between atoms: _143  and  _144
REMARK   61  A    between atoms: _143  and  _146
REMARK   62  A    between atoms: _146  and  _147
REMARK   63  A    between atoms: _147  and  _148
REMARK   64  A    between atoms: _148  and  _149
REMARK   65  A    between atoms: _158  and  _160
REMARK   66  A    between atoms: _160  and  _161
REMARK   67  A    between atoms: _160  and  _163
REMARK   68  A    between atoms: _163  and  _164
REMARK   69  A    between atoms: _167  and  _169
REMARK   70  A    between atoms: _169  and  _170
REMARK   71  A    between atoms: _169  and  _172
REMARK   72  A    between atoms: _172  and  _173
REMARK   73  A    between atoms: _178  and  _180
REMARK   74  A    between atoms: _180  and  _181
REMARK   75  A    between atoms: _180  and  _183
REMARK   76  A    between atoms: _183  and  _184
REMARK   77  A    between atoms: _184  and  _185
REMARK   78  A    between atoms: _188  and  _190
REMARK   79  A    between atoms: _190  and  _191
REMARK   80  A    between atoms: _190  and  _193
REMARK   81  A    between atoms: _193  and  _194
REMARK   82  A    between atoms: _194  and  _195
REMARK   83  A    between atoms: _195  and  _196
REMARK   84  A    between atoms: _196  and  _197
REMARK   85  A    between atoms: _201  and  _203
REMARK   86  A    between atoms: _203  and  _204
REMARK   87  A    between atoms: _206  and  _208
REMARK   88  A    between atoms: _208  and  _209
REMARK   89  A    between atoms: _208  and  _211
REMARK   90  A    between atoms: _211  and  _212
REMARK   91  A    between atoms: _212  and  _213
REMARK   92  A    between atoms: _213  and  _214
REMARK   93  A    between atoms: _223  and  _225
REMARK   94  A    between atoms: _225  and  _226
REMARK   95  A    between atoms: _225  and  _228
REMARK   96  A    between atoms: _228  and  _229
REMARK   97  A    between atoms: _229  and  _230
REMARK   98  A    between atoms: _235  and  _237
REMARK   99  A    between atoms: _237  and  _238
REMARK  100  A    between atoms: _237  and  _240
REMARK  101  A    between atoms: _240  and  _241
REMARK  102  A    between atoms: _244  and  _246
REMARK  103  A    between atoms: _246  and  _247
REMARK  104  A    between atoms: _246  and  _249
REMARK  105  A    between atoms: _252  and  _254
REMARK  106  A    between atoms: _254  and  _255
REMARK  107  A    between atoms: _254  and  _257
REMARK  108  A    between atoms: _257  and  _258
REMARK  109  A    between atoms: _260  and  _262
REMARK  110  A    between atoms: _262  and  _263
REMARK  111  A    between atoms: _262  and  _265
REMARK  112  A    between atoms: _265  and  _266
REMARK  113  A    between atoms: _268  and  _270
REMARK  114  A    between atoms: _270  and  _271
REMARK  115  A    between atoms: _270  and  _273
REMARK  116  A    between atoms: _273  and  _274
REMARK  117  A    between atoms: _280  and  _282
REMARK  118  A    between atoms: _282  and  _283
REMARK  119  A    between atoms: _282  and  _285
REMARK  120  A    between atoms: _285  and  _286
REMARK  121  A    between atoms: _289  and  _291
REMARK  122  A    between atoms: _291  and  _292
REMARK  123  A    between atoms: _291  and  _294
REMARK  124  A    between atoms: _294  and  _295
REMARK  125  A    between atoms: _298  and  _300
REMARK  126  A    between atoms: _300  and  _301
REMARK  127  A    between atoms: _300  and  _303
REMARK  128  A    between atoms: _303  and  _304
REMARK  129  A    between atoms: _307  and  _309
REMARK  130  A    between atoms: _309  and  _310
REMARK  131  A    between atoms: _309  and  _312
REMARK  132  A    between atoms: _312  and  _313
REMARK  133  A    between atoms: _313  and  _314
REMARK  134  A    between atoms: _316  and  _318
REMARK  135  A    between atoms: _318  and  _319
REMARK  136  A    between atoms: _318  and  _321
REMARK  137  A    between atoms: _323  and  _325
REMARK  138  A    between atoms: _325  and  _326
REMARK  139  A    between atoms: _329  and  _331
REMARK  140  A    between atoms: _331  and  _332
REMARK  141  A    between atoms: _334  and  _336
REMARK  142  A    between atoms: _336  and  _337
REMARK  143  A    between atoms: _336  and  _339
REMARK  144  A    between atoms: _339  and  _340
REMARK  145  A    between atoms: _340  and  _341
REMARK  146  A    between atoms: _344  and  _346
REMARK  147  A    between atoms: _346  and  _347
REMARK  148  A    between atoms: _346  and  _349
REMARK  149  A    between atoms: _349  and  _350
REMARK  150  A    between atoms: _353  and  _355
REMARK  151  A    between atoms: _355  and  _356
REMARK  152  A    between atoms: _359  and  _361
REMARK  153  A    between atoms: _361  and  _362
REMARK  154  A    between atoms: _361  and  _364
REMARK  155  A    between atoms: _364  and  _365
REMARK  156  A    between atoms: _365  and  _468
REMARK  157  A    between atoms: _366  and  _368
REMARK  158  A    between atoms: _368  and  _369
REMARK  159  A    between atoms: _368  and  _371
REMARK  160  A    between atoms: _371  and  _372
REMARK  161  A    between atoms: _372  and  _373
REMARK  162  A    between atoms: _378  and  _380
REMARK  163  A    between atoms: _380  and  _381
REMARK  164  A    between atoms: _383  and  _385
REMARK  165  A    between atoms: _385  and  _386
REMARK  166  A    between atoms: _385  and  _388
REMARK  167  A    between atoms: _388  and  _389
REMARK  168  A    between atoms: _392  and  _394
REMARK  169  A    between atoms: _394  and  _395
REMARK  170  A    between atoms: _394  and  _397
REMARK  171  A    between atoms: _397  and  _398
REMARK  172  A    between atoms: _400  and  _402
REMARK  173  A    between atoms: _402  and  _403
REMARK  174  A    between atoms: _405  and  _407
REMARK  175  A    between atoms: _407  and  _408
REMARK  176  A    between atoms: _410  and  _412
REMARK  177  A    between atoms: _412  and  _413
REMARK  178  A    between atoms: _412  and  _415
REMARK  179  A    between atoms: _418  and  _420
REMARK  180  A    between atoms: _420  and  _421
REMARK  181  A    between atoms: _420  and  _423
REMARK  182  A    between atoms: _423  and  _424
REMARK  183  A    between atoms: _426  and  _428
REMARK  184  A    between atoms: _428  and  _429
REMARK  185  A    between atoms: _428  and  _431
REMARK  186  A    between atoms: _431  and  _432
REMARK  187  A    between atoms: _442  and  _444
REMARK  188  A    between atoms: _444  and  _445
REMARK  189  A    between atoms: _447  and  _449
REMARK  190  A    between atoms: _449  and  _450
REMARK  191  A    between atoms: _449  and  _452
REMARK  192  A    between atoms: _452  and  _453
REMARK  193  A    between atoms: _453  and  _454
REMARK  194  A    between atoms: _457  and  _459
REMARK  195  A    between atoms: _459  and  _460
REMARK  196  A    between atoms: _462  and  _464
REMARK  197  A    between atoms: _464  and  _465
REMARK  198  A    between atoms: _464  and  _467
REMARK  199  A    between atoms: _467  and  _468
REMARK  200  A    between atoms: _469  and  _471
REMARK  201  A    between atoms: _471  and  _472
REMARK  202  A    between atoms: _475  and  _477
REMARK  203  A    between atoms: _477  and  _478
REMARK  204  A    between atoms: _477  and  _480
REMARK  205  A    between atoms: _480  and  _481
REMARK  206  A    between atoms: _481  and  _482
REMARK  207  A    between atoms: _482  and  _483
REMARK  208  A    between atoms: _492  and  _494
REMARK  209  A    between atoms: _494  and  _495
REMARK  210  A    between atoms: _494  and  _497
REMARK  211  A    between atoms: _497  and  _498
REMARK  212  A    between atoms: _498  and  _499
REMARK  213  A    between atoms: _499  and  _500
REMARK  214  A    between atoms: _500  and  _501
REMARK  215  A    between atoms: _505  and  _507
REMARK  216  A    between atoms: _507  and  _508
REMARK  217  A    between atoms: _507  and  _510
REMARK  218  A    between atoms: _510  and  _511
REMARK  219  A    between atoms: _516  and  _517
REMARK  220  A    between atoms: _519  and  _521
REMARK  221  A    between atoms: _521  and  _522
REMARK  222  A    between atoms: _524  and  _526
REMARK  223  A    between atoms: _526  and  _527
REMARK  224  A    between atoms: _526  and  _529
REMARK  225  A    between atoms: _529  and  _530
REMARK  226  A    between atoms: _533  and  _535
REMARK  227  A    between atoms: _535  and  _536
REMARK  228  A    between atoms: _535  and  _538
REMARK  229  A    between atoms: _538  and  _539
REMARK  230  A    between atoms: _544  and  _545
REMARK                            x       y       z     vdW  Elec       q    Type
REMARK                         _______ _______ _______ _____ _____    ______ ____
ROOT
ATOM      1  O   HOH     1       7.499   3.490  29.807  0.00  0.00    +0.000 OA
ENDROOT
TORSDOF 0
REMARK  Name = ../refined-set-2016/1lpg/1lpg_pocket.pdb
REMARK  230 active torsions:
REMARK  status: ('A' for Active; 'I' for Inactive)
REMARK    1  A    between atoms: _1  and  _5
REMARK    2  A    between atoms: _5  and  _6
REMARK    3  A    between atoms: _5  and  _8
REMARK    4  A    between atoms: _8  and  _9
REMARK    5  A    between atoms: _12  and  _14
REMARK    6  A    between atoms: _14  and  _15
REMARK    7  A    between atoms: _14  and  _17
REMARK    8  A    between atoms: _20  and  _22
REMARK    9  A    between atoms: _22  and  _23
REMARK   10  A    between atoms: _22  and  _25
REMARK   11  A    between atoms: _25  and  _26
REMARK   12  A    between atoms: _31  and  _33
REMARK   13  A    between atoms: _33  and  _34
REMARK   14  A    between atoms: _33  and  _36
REMARK   15  A    between atoms: _36  and  _37
REMARK   16  A    between atoms: _37  and  _38
REMARK   17  A    between atoms: _43  and  _45
REMARK   18  A    between atoms: _45  and  _46
REMARK   19  A    between atoms: _45  and  _48
REMARK   20  A    between atoms: _48  and  _49
REMARK   21  A    between atoms: _55  and  _57
REMARK   22  A    between atoms: _57  and  _58
REMARK   23  A    between atoms: _57  and  _60
REMARK   24  A    between atoms: _60  and  _61
REMARK   25  A    between atoms: _64  and  _66
REMARK   26  A    between atoms: _66  and  _67
REMARK   27  A    between atoms: _66  and  _69
REMARK   28  A    between atoms: _69  and  _70
REMARK   29  A    between atoms: _70  and  _71
REMARK   30  A    between atoms: _71  and  _72
REMARK   31  A    between atoms: _72  and  _73
REMARK   32  A    between atoms: _77  and  _79
REMARK   33  A    between atoms: _79  and  _80
REMARK   34  A    between atoms: _79  and  _82
REMARK   35  A    between atoms: _82  and  _83
REMARK   36  A    between atoms: _83  and  _84
REMARK   37  A    between atoms: _87  and  _89
REMARK   38  A    between atoms: _89  and  _90
REMARK   39  A    between atoms: _89  and  _92
REMARK   40  A    between atoms: _92  and  _93
REMARK   41  A    between atoms: _96  and  _98
REMARK   42  A    between atoms: _98  and  _99
REMARK   43  A    between atoms: _98  and  _101
REMARK   44  A    between atoms: _101  and  _102
REMARK   45  A    between atoms: _107  and  _108
REMARK   46  A    between atoms: _110  and  _112
REMARK   47  A    between atoms: _112  and  _113
REMARK   48  A    between atoms: _112  and  _115
REMARK   49  A    between atoms: _115  and  _116
REMARK   50  A    between atoms: _119  and  _121
REMARK   51  A    between atoms: _121  and  _122
REMARK   52  A    between atoms: _121  and  _124
REMARK   53  A    between atoms: _124  and  _125
REMARK   54  A    between atoms: _128  and  _130
REMARK   55  A    between atoms: _130  and  _131
REMARK   56  A    between atoms: _130  and  _133
REMARK   57  A    between atoms: _136  and  _138
REMARK   58  A    between atoms: _138  and  _139
REMARK   59  A    between atoms: _141  and  _143
REMARK   60  A    between atoms: _143  and  _144
REMARK   61  A    between atoms: _143  and  _146
REMARK   62  A    between atoms: _146  and  _147
REMARK   63  A    between atoms: _147  and  _148
REMARK   64  A    between atoms: _148  and  _149
REMARK   65  A    between atoms: _158  and  _160
REMARK   66  A    between atoms: _160  and  _161
REMARK   67  A    between atoms: _160  and  _163
REMARK   68  A    between atoms: _163  and  _164
REMARK   69  A    between atoms: _167  and  _169
REMARK   70  A    between atoms: _169  and  _170
REMARK   71  A    between atoms: _169  and  _172
REMARK   72  A    between atoms: _172  and  _173
REMARK   73  A    between atoms: _178  and  _180
REMARK   74  A    between atoms: _180  and  _181
REMARK   75  A    between atoms: _180  and  _183
REMARK   76  A    between atoms: _183  and  _184
REMARK   77  A    between atoms: _184  and  _185
REMARK   78  A    between atoms: _188  and  _190
REMARK   79  A    between atoms: _190  and  _191
REMARK   80  A    between atoms: _190  and  _193
REMARK   81  A    between atoms: _193  and  _194
REMARK   82  A    between atoms: _194  and  _195
REMARK   83  A    between atoms: _195  and  _196
REMARK   84  A    between atoms: _196  and  _197
REMARK   85  A    between atoms: _201  and  _203
REMARK   86  A    between atoms: _203  and  _204
REMARK   87  A    between atoms: _206  and  _208
REMARK   88  A    between atoms: _208  and  _209
REMARK   89  A    between atoms: _208  and  _211
REMARK   90  A    between atoms: _211  and  _212
REMARK   91  A    between atoms: _212  and  _213
REMARK   92  A    between atoms: _213  and  _214
REMARK   93  A    between atoms: _223  and  _225
REMARK   94  A    between atoms: _225  and  _226
REMARK   95  A    between atoms: _225  and  _228
REMARK   96  A    between atoms: _228  and  _229
REMARK   97  A    between atoms: _229  and  _230
REMARK   98  A    between atoms: _235  and  _237
REMARK   99  A    between atoms: _237  and  _238
REMARK  100  A    between atoms: _237  and  _240
REMARK  101  A    between atoms: _240  and  _241
REMARK  102  A    between atoms: _244  and  _246
REMARK  103  A    between atoms: _246  and  _247
REMARK  104  A    between atoms: _246  and  _249
REMARK  105  A    between atoms: _252  and  _254
REMARK  106  A    between atoms: _254  and  _255
REMARK  107  A    between atoms: _254  and  _257
REMARK  108  A    between atoms: _257  and  _258
REMARK  109  A    between atoms: _260  and  _262
REMARK  110  A    between atoms: _262  and  _263
REMARK  111  A    between atoms: _262  and  _265
REMARK  112  A    between atoms: _265  and  _266
REMARK  113  A    between atoms: _268  and  _270
REMARK  114  A    between atoms: _270  and  _271
REMARK  115  A    between atoms: _270  and  _273
REMARK  116  A    between atoms: _273  and  _274
REMARK  117  A    between atoms: _280  and  _282
REMARK  118  A    between atoms: _282  and  _283
REMARK  119  A    between atoms: _282  and  _285
REMARK  120  A    between atoms: _285  and  _286
REMARK  121  A    between atoms: _289  and  _291
REMARK  122  A    between atoms: _291  and  _292
REMARK  123  A    between atoms: _291  and  _294
REMARK  124  A    between atoms: _294  and  _295
REMARK  125  A    between atoms: _298  and  _300
REMARK  126  A    between atoms: _300  and  _301
REMARK  127  A    between atoms: _300  and  _303
REMARK  128  A    between atoms: _303  and  _304
REMARK  129  A    between atoms: _307  and  _309
REMARK  130  A    between atoms: _309  and  _310
REMARK  131  A    between atoms: _309  and  _312
REMARK  132  A    between atoms: _312  and  _313
REMARK  133  A    between atoms: _313  and  _314
REMARK  134  A    between atoms: _316  and  _318
REMARK  135  A    between atoms: _318  and  _319
REMARK  136  A    between atoms: _318  and  _321
REMARK  137  A    between atoms: _323  and  _325
REMARK  138  A    between atoms: _325  and  _326
REMARK  139  A    between atoms: _329  and  _331
REMARK  140  A    between atoms: _331  and  _332
REMARK  141  A    between atoms: _334  and  _336
REMARK  142  A    between atoms: _336  and  _337
REMARK  143  A    between atoms: _336  and  _339
REMARK  144  A    between atoms: _339  and  _340
REMARK  145  A    between atoms: _340  and  _341
REMARK  146  A    between atoms: _344  and  _346
REMARK  147  A    between atoms: _346  and  _347
REMARK  148  A    between atoms: _346  and  _349
REMARK  149  A    between atoms: _349  and  _350
REMARK  150  A    between atoms: _353  and  _355
REMARK  151  A    between atoms: _355  and  _356
REMARK  152  A    between atoms: _359  and  _361
REMARK  153  A    between atoms: _361  and  _362
REMARK  154  A    between atoms: _361  and  _364
REMARK  155  A    between atoms: _364  and  _365
REMARK  156  A    between atoms: _365  and  _468
REMARK  157  A    between atoms: _366  and  _368
REMARK  158  A    between atoms: _368  and  _369
REMARK  159  A    between atoms: _368  and  _371
REMARK  160  A    between atoms: _371  and  _372
REMARK  161  A    between atoms: _372  and  _373
REMARK  162  A    between atoms: _378  and  _380
REMARK  163  A    between atoms: _380  and  _381
REMARK  164  A    between atoms: _383  and  _385
REMARK  165  A    between atoms: _385  and  _386
REMARK  166  A    between atoms: _385  and  _388
REMARK  167  A    between atoms: _388  and  _389
REMARK  168  A    between atoms: _392  and  _394
REMARK  169  A    between atoms: _394  and  _395
REMARK  170  A    between atoms: _394  and  _397
REMARK  171  A    between atoms: _397  and  _398
REMARK  172  A    between atoms: _400  and  _402
REMARK  173  A    between atoms: _402  and  _403
REMARK  174  A    between atoms: _405  and  _407
REMARK  175  A    between atoms: _407  and  _408
REMARK  176  A    between atoms: _410  and  _412
REMARK  177  A    between atoms: _412  and  _413
REMARK  178  A    between atoms: _412  and  _415
REMARK  179  A    between atoms: _418  and  _420
REMARK  180  A    between atoms: _420  and  _421
REMARK  181  A    between atoms: _420  and  _423
REMARK  182  A    between atoms: _423  and  _424
REMARK  183  A    between atoms: _426  and  _428
REMARK  184  A    between atoms: _428  and  _429
REMARK  185  A    between atoms: _428  and  _431
REMARK  186  A    between atoms: _431  and  _432
REMARK  187  A    between atoms: _442  and  _444
REMARK  188  A    between atoms: _444  and  _445
REMARK  189  A    between atoms: _447  and  _449
REMARK  190  A    between atoms: _449  and  _450
REMARK  191  A    between atoms: _449  and  _452
REMARK  192  A    between atoms: _452  and  _453
REMARK  193  A    between atoms: _453  and  _454
REMARK  194  A    between atoms: _457  and  _459
REMARK  195  A    between atoms: _459  and  _460
REMARK  196  A    between atoms: _462  and  _464
REMARK  197  A    between atoms: _464  and  _465
REMARK  198  A    between atoms: _464  and  _467
REMARK  199  A    between atoms: _467  and  _468
REMARK  200  A    between atoms: _469  and  _471
REMARK  201  A    between atoms: _471  and  _472
REMARK  202  A    between atoms: _475  and  _477
REMARK  203  A    between atoms: _477  and  _478
REMARK  204  A    between atoms: _477  and  _480
REMARK  205  A    between atoms: _480  and  _481
REMARK  206  A    between atoms: _481  and  _482
REMARK  207  A    between atoms: _482  and  _483
REMARK  208  A    between atoms: _492  and  _494
REMARK  209  A    between atoms: _494  and  _495
REMARK  210  A    between atoms: _494  and  _497
REMARK  211  A    between atoms: _497  and  _498
REMARK  212  A    between atoms: _498  and  _499
REMARK  213  A    between atoms: _499  and  _500
REMARK  214  A    between atoms: _500  and  _501
REMARK  215  A    between atoms: _505  and  _507
REMARK  216  A    between atoms: _507  and  _508
REMARK  217  A    between atoms: _507  and  _510
REMARK  218  A    between atoms: _510  and  _511
REMARK  219  A    between atoms: _516  and  _517
REMARK  220  A    between atoms: _519  and  _521
REMARK  221  A    between atoms: _521  and  _522
REMARK  222  A    between atoms: _524  and  _526
REMARK  223  A    between atoms: _526  and  _527
REMARK  224  A    between atoms: _526  and  _529
REMARK  225  A    between atoms: _529  and  _530
REMARK  226  A    between atoms: _533  and  _535
REMARK  227  A    between atoms: _535  and  _536
REMARK  228  A    between atoms: _535  and  _538
REMARK  229  A    between atoms: _538  and  _539
REMARK  230  A    between atoms: _544  and  _545
REMARK                            x       y       z     vdW  Elec       q    Type
REMARK                         _______ _______ _______ _____ _____    ______ ____
ROOT
ATOM      1  O   HOH     1      -4.232  13.243  28.503  0.00  0.00    +0.000 OA
ENDROOT
TORSDOF 0
REMARK  Name = ../refined-set-2016/1lpg/1lpg_pocket.pdb
REMARK  230 active torsions:
REMARK  status: ('A' for Active; 'I' for Inactive)
REMARK    1  A    between atoms: _1  and  _5
REMARK    2  A    between atoms: _5  and  _6
REMARK    3  A    between atoms: _5  and  _8
REMARK    4  A    between atoms: _8  and  _9
REMARK    5  A    between atoms: _12  and  _14
REMARK    6  A    between atoms: _14  and  _15
REMARK    7  A    between atoms: _14  and  _17
REMARK    8  A    between atoms: _20  and  _22
REMARK    9  A    between atoms: _22  and  _23
REMARK   10  A    between atoms: _22  and  _25
REMARK   11  A    between atoms: _25  and  _26
REMARK   12  A    between atoms: _31  and  _33
REMARK   13  A    between atoms: _33  and  _34
REMARK   14  A    between atoms: _33  and  _36
REMARK   15  A    between atoms: _36  and  _37
REMARK   16  A    between atoms: _37  and  _38
REMARK   17  A    between atoms: _43  and  _45
REMARK   18  A    between atoms: _45  and  _46
REMARK   19  A    between atoms: _45  and  _48
REMARK   20  A    between atoms: _48  and  _49
REMARK   21  A    between atoms: _55  and  _57
REMARK   22  A    between atoms: _57  and  _58
REMARK   23  A    between atoms: _57  and  _60
REMARK   24  A    between atoms: _60  and  _61
REMARK   25  A    between atoms: _64  and  _66
REMARK   26  A    between atoms: _66  and  _67
REMARK   27  A    between atoms: _66  and  _69
REMARK   28  A    between atoms: _69  and  _70
REMARK   29  A    between atoms: _70  and  _71
REMARK   30  A    between atoms: _71  and  _72
REMARK   31  A    between atoms: _72  and  _73
REMARK   32  A    between atoms: _77  and  _79
REMARK   33  A    between atoms: _79  and  _80
REMARK   34  A    between atoms: _79  and  _82
REMARK   35  A    between atoms: _82  and  _83
REMARK   36  A    between atoms: _83  and  _84
REMARK   37  A    between atoms: _87  and  _89
REMARK   38  A    between atoms: _89  and  _90
REMARK   39  A    between atoms: _89  and  _92
REMARK   40  A    between atoms: _92  and  _93
REMARK   41  A    between atoms: _96  and  _98
REMARK   42  A    between atoms: _98  and  _99
REMARK   43  A    between atoms: _98  and  _101
REMARK   44  A    between atoms: _101  and  _102
REMARK   45  A    between atoms: _107  and  _108
REMARK   46  A    between atoms: _110  and  _112
REMARK   47  A    between atoms: _112  and  _113
REMARK   48  A    between atoms: _112  and  _115
REMARK   49  A    between atoms: _115  and  _116
REMARK   50  A    between atoms: _119  and  _121
REMARK   51  A    between atoms: _121  and  _122
REMARK   52  A    between atoms: _121  and  _124
REMARK   53  A    between atoms: _124  and  _125
REMARK   54  A    between atoms: _128  and  _130
REMARK   55  A    between atoms: _130  and  _131
REMARK   56  A    between atoms: _130  and  _133
REMARK   57  A    between atoms: _136  and  _138
REMARK   58  A    between atoms: _138  and  _139
REMARK   59  A    between atoms: _141  and  _143
REMARK   60  A    between atoms: _143  and  _144
REMARK   61  A    between atoms: _143  and  _146
REMARK   62  A    between atoms: _146  and  _147
REMARK   63  A    between atoms: _147  and  _148
REMARK   64  A    between atoms: _148  and  _149
REMARK   65  A    between atoms: _158  and  _160
REMARK   66  A    between atoms: _160  and  _161
REMARK   67  A    between atoms: _160  and  _163
REMARK   68  A    between atoms: _163  and  _164
REMARK   69  A    between atoms: _167  and  _169
REMARK   70  A    between atoms: _169  and  _170
REMARK   71  A    between atoms: _169  and  _172
REMARK   72  A    between atoms: _172  and  _173
REMARK   73  A    between atoms: _178  and  _180
REMARK   74  A    between atoms: _180  and  _181
REMARK   75  A    between atoms: _180  and  _183
REMARK   76  A    between atoms: _183  and  _184
REMARK   77  A    between atoms: _184  and  _185
REMARK   78  A    between atoms: _188  and  _190
REMARK   79  A    between atoms: _190  and  _191
REMARK   80  A    between atoms: _190  and  _193
REMARK   81  A    between atoms: _193  and  _194
REMARK   82  A    between atoms: _194  and  _195
REMARK   83  A    between atoms: _195  and  _196
REMARK   84  A    between atoms: _196  and  _197
REMARK   85  A    between atoms: _201  and  _203
REMARK   86  A    between atoms: _203  and  _204
REMARK   87  A    between atoms: _206  and  _208
REMARK   88  A    between atoms: _208  and  _209
REMARK   89  A    between atoms: _208  and  _211
REMARK   90  A    between atoms: _211  and  _212
REMARK   91  A    between atoms: _212  and  _213
REMARK   92  A    between atoms: _213  and  _214
REMARK   93  A    between atoms: _223  and  _225
REMARK   94  A    between atoms: _225  and  _226
REMARK   95  A    between atoms: _225  and  _228
REMARK   96  A    between atoms: _228  and  _229
REMARK   97  A    between atoms: _229  and  _230
REMARK   98  A    between atoms: _235  and  _237
REMARK   99  A    between atoms: _237  and  _238
REMARK  100  A    between atoms: _237  and  _240
REMARK  101  A    between atoms: _240  and  _241
REMARK  102  A    between atoms: _244  and  _246
REMARK  103  A    between atoms: _246  and  _247
REMARK  104  A    between atoms: _246  and  _249
REMARK  105  A    between atoms: _252  and  _254
REMARK  106  A    between atoms: _254  and  _255
REMARK  107  A    between atoms: _254  and  _257
REMARK  108  A    between atoms: _257  and  _258
REMARK  109  A    between atoms: _260  and  _262
REMARK  110  A    between atoms: _262  and  _263
REMARK  111  A    between atoms: _262  and  _265
REMARK  112  A    between atoms: _265  and  _266
REMARK  113  A    between atoms: _268  and  _270
REMARK  114  A    between atoms: _270  and  _271
REMARK  115  A    between atoms: _270  and  _273
REMARK  116  A    between atoms: _273  and  _274
REMARK  117  A    between atoms: _280  and  _282
REMARK  118  A    between atoms: _282  and  _283
REMARK  119  A    between atoms: _282  and  _285
REMARK  120  A    between atoms: _285  and  _286
REMARK  121  A    between atoms: _289  and  _291
REMARK  122  A    between atoms: _291  and  _292
REMARK  123  A    between atoms: _291  and  _294
REMARK  124  A    between atoms: _294  and  _295
REMARK  125  A    between atoms: _298  and  _300
REMARK  126  A    between atoms: _300  and  _301
REMARK  127  A    between atoms: _300  and  _303
REMARK  128  A    between atoms: _303  and  _304
REMARK  129  A    between atoms: _307  and  _309
REMARK  130  A    between atoms: _309  and  _310
REMARK  131  A    between atoms: _309  and  _312
REMARK  132  A    between atoms: _312  and  _313
REMARK  133  A    between atoms: _313  and  _314
REMARK  134  A    between atoms: _316  and  _318
REMARK  135  A    between atoms: _318  and  _319
REMARK  136  A    between atoms: _318  and  _321
REMARK  137  A    between atoms: _323  and  _325
REMARK  138  A    between atoms: _325  and  _326
REMARK  139  A    between atoms: _329  and  _331
REMARK  140  A    between atoms: _331  and  _332
REMARK  141  A    between atoms: _334  and  _336
REMARK  142  A    between atoms: _336  and  _337
REMARK  143  A    between atoms: _336  and  _339
REMARK  144  A    between atoms: _339  and  _340
REMARK  145  A    between atoms: _340  and  _341
REMARK  146  A    between atoms: _344  and  _346
REMARK  147  A    between atoms: _346  and  _347
REMARK  148  A    between atoms: _346  and  _349
REMARK  149  A    between atoms: _349  and  _350
REMARK  150  A    between atoms: _353  and  _355
REMARK  151  A    between atoms: _355  and  _356
REMARK  152  A    between atoms: _359  and  _361
REMARK  153  A    between atoms: _361  and  _362
REMARK  154  A    between atoms: _361  and  _364
REMARK  155  A    between atoms: _364  and  _365
REMARK  156  A    between atoms: _365  and  _468
REMARK  157  A    between atoms: _366  and  _368
REMARK  158  A    between atoms: _368  and  _369
REMARK  159  A    between atoms: _368  and  _371
REMARK  160  A    between atoms: _371  and  _372
REMARK  161  A    between atoms: _372  and  _373
REMARK  162  A    between atoms: _378  and  _380
REMARK  163  A    between atoms: _380  and  _381
REMARK  164  A    between atoms: _383  and  _385
REMARK  165  A    between atoms: _385  and  _386
REMARK  166  A    between atoms: _385  and  _388
REMARK  167  A    between atoms: _388  and  _389
REMARK  168  A    between atoms: _392  and  _394
REMARK  169  A    between atoms: _394  and  _395
REMARK  170  A    between atoms: _394  and  _397
REMARK  171  A    between atoms: _397  and  _398
REMARK  172  A    between atoms: _400  and  _402
REMARK  173  A    between atoms: _402  and  _403
REMARK  174  A    between atoms: _405  and  _407
REMARK  175  A    between atoms: _407  and  _408
REMARK  176  A    between atoms: _410  and  _412
REMARK  177  A    between atoms: _412  and  _413
REMARK  178  A    between atoms: _412  and  _415
REMARK  179  A    between atoms: _418  and  _420
REMARK  180  A    between atoms: _420  and  _421
REMARK  181  A    between atoms: _420  and  _423
REMARK  182  A    between atoms: _423  and  _424
REMARK  183  A    between atoms: _426  and  _428
REMARK  184  A    between atoms: _428  and  _429
REMARK  185  A    between atoms: _428  and  _431
REMARK  186  A    between atoms: _431  and  _432
REMARK  187  A    between atoms: _442  and  _444
REMARK  188  A    between atoms: _444  and  _445
REMARK  189  A    between atoms: _447  and  _449
REMARK  190  A    between atoms: _449  and  _450
REMARK  191  A    between atoms: _449  and  _452
REMARK  192  A    between atoms: _452  and  _453
REMARK  193  A    between atoms: _453  and  _454
REMARK  194  A    between atoms: _457  and  _459
REMARK  195  A    between atoms: _459  and  _460
REMARK  196  A    between atoms: _462  and  _464
REMARK  197  A    between atoms: _464  and  _465
REMARK  198  A    between atoms: _464  and  _467
REMARK  199  A    between atoms: _467  and  _468
REMARK  200  A    between atoms: _469  and  _471
REMARK  201  A    between atoms: _471  and  _472
REMARK  202  A    between atoms: _475  and  _477
REMARK  203  A    between atoms: _477  and  _478
REMARK  204  A    between atoms: _477  and  _480
REMARK  205  A    between atoms: _480  and  _481
REMARK  206  A    between atoms: _481  and  _482
REMARK  207  A    between atoms: _482  and  _483
REMARK  208  A    between atoms: _492  and  _494
REMARK  209  A    between atoms: _494  and  _495
REMARK  210  A    between atoms: _494  and  _497
REMARK  211  A    between atoms: _497  and  _498
REMARK  212  A    between atoms: _498  and  _499
REMARK  213  A    between atoms: _499  and  _500
REMARK  214  A    between atoms: _500  and  _501
REMARK  215  A    between atoms: _505  and  _507
REMARK  216  A    between atoms: _507  and  _508
REMARK  217  A    between atoms: _507  and  _510
REMARK  218  A    between atoms: _510  and  _511
REMARK  219  A    between atoms: _516  and  _517
REMARK  220  A    between atoms: _519  and  _521
REMARK  221  A    between atoms: _521  and  _522
REMARK  222  A    between atoms: _524  and  _526
REMARK  223  A    between atoms: _526  and  _527
REMARK  224  A    between atoms: _526  and  _529
REMARK  225  A    between atoms: _529  and  _530
REMARK  226  A    between atoms: _533  and  _535
REMARK  227  A    between atoms: _535  and  _536
REMARK  228  A    between atoms: _535  and  _538
REMARK  229  A    between atoms: _538  and  _539
REMARK  230  A    between atoms: _544  and  _545
REMARK                            x       y       z     vdW  Elec       q    Type
REMARK                         _______ _______ _______ _____ _____    ______ ____
ROOT
ATOM      1  O   HOH     1       8.827  12.535  19.386  0.00  0.00    +0.000 OA
ENDROOT
TORSDOF 0
REMARK  Name = ../refined-set-2016/1lpg/1lpg_pocket.pdb
REMARK  230 active torsions:
REMARK  status: ('A' for Active; 'I' for Inactive)
REMARK    1  A    between atoms: _1  and  _5
REMARK    2  A    between atoms: _5  and  _6
REMARK    3  A    between atoms: _5  and  _8
REMARK    4  A    between atoms: _8  and  _9
REMARK    5  A    between atoms: _12  and  _14
REMARK    6  A    between atoms: _14  and  _15
REMARK    7  A    between atoms: _14  and  _17
REMARK    8  A    between atoms: _20  and  _22
REMARK    9  A    between atoms: _22  and  _23
REMARK   10  A    between atoms: _22  and  _25
REMARK   11  A    between atoms: _25  and  _26
REMARK   12  A    between atoms: _31  and  _33
REMARK   13  A    between atoms: _33  and  _34
REMARK   14  A    between atoms: _33  and  _36
REMARK   15  A    between atoms: _36  and  _37
REMARK   16  A    between atoms: _37  and  _38
REMARK   17  A    between atoms: _43  and  _45
REMARK   18  A    between atoms: _45  and  _46
REMARK   19  A    between atoms: _45  and  _48
REMARK   20  A    between atoms: _48  and  _49
REMARK   21  A    between atoms: _55  and  _57
REMARK   22  A    between atoms: _57  and  _58
REMARK   23  A    between atoms: _57  and  _60
REMARK   24  A    between atoms: _60  and  _61
REMARK   25  A    between atoms: _64  and  _66
REMARK   26  A    between atoms: _66  and  _67
REMARK   27  A    between atoms: _66  and  _69
REMARK   28  A    between atoms: _69  and  _70
REMARK   29  A    between atoms: _70  and  _71
REMARK   30  A    between atoms: _71  and  _72
REMARK   31  A    between atoms: _72  and  _73
REMARK   32  A    between atoms: _77  and  _79
REMARK   33  A    between atoms: _79  and  _80
REMARK   34  A    between atoms: _79  and  _82
REMARK   35  A    between atoms: _82  and  _83
REMARK   36  A    between atoms: _83  and  _84
REMARK   37  A    between atoms: _87  and  _89
REMARK   38  A    between atoms: _89  and  _90
REMARK   39  A    between atoms: _89  and  _92
REMARK   40  A    between atoms: _92  and  _93
REMARK   41  A    between atoms: _96  and  _98
REMARK   42  A    between atoms: _98  and  _99
REMARK   43  A    between atoms: _98  and  _101
REMARK   44  A    between atoms: _101  and  _102
REMARK   45  A    between atoms: _107  and  _108
REMARK   46  A    between atoms: _110  and  _112
REMARK   47  A    between atoms: _112  and  _113
REMARK   48  A    between atoms: _112  and  _115
REMARK   49  A    between atoms: _115  and  _116
REMARK   50  A    between atoms: _119  and  _121
REMARK   51  A    between atoms: _121  and  _122
REMARK   52  A    between atoms: _121  and  _124
REMARK   53  A    between atoms: _124  and  _125
REMARK   54  A    between atoms: _128  and  _130
REMARK   55  A    between atoms: _130  and  _131
REMARK   56  A    between atoms: _130  and  _133
REMARK   57  A    between atoms: _136  and  _138
REMARK   58  A    between atoms: _138  and  _139
REMARK   59  A    between atoms: _141  and  _143
REMARK   60  A    between atoms: _143  and  _144
REMARK   61  A    between atoms: _143  and  _146
REMARK   62  A    between atoms: _146  and  _147
REMARK   63  A    between atoms: _147  and  _148
REMARK   64  A    between atoms: _148  and  _149
REMARK   65  A    between atoms: _158  and  _160
REMARK   66  A    between atoms: _160  and  _161
REMARK   67  A    between atoms: _160  and  _163
REMARK   68  A    between atoms: _163  and  _164
REMARK   69  A    between atoms: _167  and  _169
REMARK   70  A    between atoms: _169  and  _170
REMARK   71  A    between atoms: _169  and  _172
REMARK   72  A    between atoms: _172  and  _173
REMARK   73  A    between atoms: _178  and  _180
REMARK   74  A    between atoms: _180  and  _181
REMARK   75  A    between atoms: _180  and  _183
REMARK   76  A    between atoms: _183  and  _184
REMARK   77  A    between atoms: _184  and  _185
REMARK   78  A    between atoms: _188  and  _190
REMARK   79  A    between atoms: _190  and  _191
REMARK   80  A    between atoms: _190  and  _193
REMARK   81  A    between atoms: _193  and  _194
REMARK   82  A    between atoms: _194  and  _195
REMARK   83  A    between atoms: _195  and  _196
REMARK   84  A    between atoms: _196  and  _197
REMARK   85  A    between atoms: _201  and  _203
REMARK   86  A    between atoms: _203  and  _204
REMARK   87  A    between atoms: _206  and  _208
REMARK   88  A    between atoms: _208  and  _209
REMARK   89  A    between atoms: _208  and  _211
REMARK   90  A    between atoms: _211  and  _212
REMARK   91  A    between atoms: _212  and  _213
REMARK   92  A    between atoms: _213  and  _214
REMARK   93  A    between atoms: _223  and  _225
REMARK   94  A    between atoms: _225  and  _226
REMARK   95  A    between atoms: _225  and  _228
REMARK   96  A    between atoms: _228  and  _229
REMARK   97  A    between atoms: _229  and  _230
REMARK   98  A    between atoms: _235  and  _237
REMARK   99  A    between atoms: _237  and  _238
REMARK  100  A    between atoms: _237  and  _240
REMARK  101  A    between atoms: _240  and  _241
REMARK  102  A    between atoms: _244  and  _246
REMARK  103  A    between atoms: _246  and  _247
REMARK  104  A    between atoms: _246  and  _249
REMARK  105  A    between atoms: _252  and  _254
REMARK  106  A    between atoms: _254  and  _255
REMARK  107  A    between atoms: _254  and  _257
REMARK  108  A    between atoms: _257  and  _258
REMARK  109  A    between atoms: _260  and  _262
REMARK  110  A    between atoms: _262  and  _263
REMARK  111  A    between atoms: _262  and  _265
REMARK  112  A    between atoms: _265  and  _266
REMARK  113  A    between atoms: _268  and  _270
REMARK  114  A    between atoms: _270  and  _271
REMARK  115  A    between atoms: _270  and  _273
REMARK  116  A    between atoms: _273  and  _274
REMARK  117  A    between atoms: _280  and  _282
REMARK  118  A    between atoms: _282  and  _283
REMARK  119  A    between atoms: _282  and  _285
REMARK  120  A    between atoms: _285  and  _286
REMARK  121  A    between atoms: _289  and  _291
REMARK  122  A    between atoms: _291  and  _292
REMARK  123  A    between atoms: _291  and  _294
REMARK  124  A    between atoms: _294  and  _295
REMARK  125  A    between atoms: _298  and  _300
REMARK  126  A    between atoms: _300  and  _301
REMARK  127  A    between atoms: _300  and  _303
REMARK  128  A    between atoms: _303  and  _304
REMARK  129  A    between atoms: _307  and  _309
REMARK  130  A    between atoms: _309  and  _310
REMARK  131  A    between atoms: _309  and  _312
REMARK  132  A    between atoms: _312  and  _313
REMARK  133  A    between atoms: _313  and  _314
REMARK  134  A    between atoms: _316  and  _318
REMARK  135  A    between atoms: _318  and  _319
REMARK  136  A    between atoms: _318  and  _321
REMARK  137  A    between atoms: _323  and  _325
REMARK  138  A    between atoms: _325  and  _326
REMARK  139  A    between atoms: _329  and  _331
REMARK  140  A    between atoms: _331  and  _332
REMARK  141  A    between atoms: _334  and  _336
REMARK  142  A    between atoms: _336  and  _337
REMARK  143  A    between atoms: _336  and  _339
REMARK  144  A    between atoms: _339  and  _340
REMARK  145  A    between atoms: _340  and  _341
REMARK  146  A    between atoms: _344  and  _346
REMARK  147  A    between atoms: _346  and  _347
REMARK  148  A    between atoms: _346  and  _349
REMARK  149  A    between atoms: _349  and  _350
REMARK  150  A    between atoms: _353  and  _355
REMARK  151  A    between atoms: _355  and  _356
REMARK  152  A    between atoms: _359  and  _361
REMARK  153  A    between atoms: _361  and  _362
REMARK  154  A    between atoms: _361  and  _364
REMARK  155  A    between atoms: _364  and  _365
REMARK  156  A    between atoms: _365  and  _468
REMARK  157  A    between atoms: _366  and  _368
REMARK  158  A    between atoms: _368  and  _369
REMARK  159  A    between atoms: _368  and  _371
REMARK  160  A    between atoms: _371  and  _372
REMARK  161  A    between atoms: _372  and  _373
REMARK  162  A    between atoms: _378  and  _380
REMARK  163  A    between atoms: _380  and  _381
REMARK  164  A    between atoms: _383  and  _385
REMARK  165  A    between atoms: _385  and  _386
REMARK  166  A    between atoms: _385  and  _388
REMARK  167  A    between atoms: _388  and  _389
REMARK  168  A    between atoms: _392  and  _394
REMARK  169  A    between atoms: _394  and  _395
REMARK  170  A    between atoms: _394  and  _397
REMARK  171  A    between atoms: _397  and  _398
REMARK  172  A    between atoms: _400  and  _402
REMARK  173  A    between atoms: _402  and  _403
REMARK  174  A    between atoms: _405  and  _407
REMARK  175  A    between atoms: _407  and  _408
REMARK  176  A    between atoms: _410  and  _412
REMARK  177  A    between atoms: _412  and  _413
REMARK  178  A    between atoms: _412  and  _415
REMARK  179  A    between atoms: _418  and  _420
REMARK  180  A    between atoms: _420  and  _421
REMARK  181  A    between atoms: _420  and  _423
REMARK  182  A    between atoms: _423  and  _424
REMARK  183  A    between atoms: _426  and  _428
REMARK  184  A    between atoms: _428  and  _429
REMARK  185  A    between atoms: _428  and  _431
REMARK  186  A    between atoms: _431  and  _432
REMARK  187  A    between atoms: _442  and  _444
REMARK  188  A    between atoms: _444  and  _445
REMARK  189  A    between atoms: _447  and  _449
REMARK  190  A    between atoms: _449  and  _450
REMARK  191  A    between atoms: _449  and  _452
REMARK  192  A    between atoms: _452  and  _453
REMARK  193  A    between atoms: _453  and  _454
REMARK  194  A    between atoms: _457  and  _459
REMARK  195  A    between atoms: _459  and  _460
REMARK  196  A    between atoms: _462  and  _464
REMARK  197  A    between atoms: _464  and  _465
REMARK  198  A    between atoms: _464  and  _467
REMARK  199  A    between atoms: _467  and  _468
REMARK  200  A    between atoms: _469  and  _471
REMARK  201  A    between atoms: _471  and  _472
REMARK  202  A    between atoms: _475  and  _477
REMARK  203  A    between atoms: _477  and  _478
REMARK  204  A    between atoms: _477  and  _480
REMARK  205  A    between atoms: _480  and  _481
REMARK  206  A    between atoms: _481  and  _482
REMARK  207  A    between atoms: _482  and  _483
REMARK  208  A    between atoms: _492  and  _494
REMARK  209  A    between atoms: _494  and  _495
REMARK  210  A    between atoms: _494  and  _497
REMARK  211  A    between atoms: _497  and  _498
REMARK  212  A    between atoms: _498  and  _499
REMARK  213  A    between atoms: _499  and  _500
REMARK  214  A    between atoms: _500  and  _501
REMARK  215  A    between atoms: _505  and  _507
REMARK  216  A    between atoms: _507  and  _508
REMARK  217  A    between atoms: _507  and  _510
REMARK  218  A    between atoms: _510  and  _511
REMARK  219  A    between atoms: _516  and  _517
REMARK  220  A    between atoms: _519  and  _521
REMARK  221  A    between atoms: _521  and  _522
REMARK  222  A    between atoms: _524  and  _526
REMARK  223  A    between atoms: _526  and  _527
REMARK  224  A    between atoms: _526  and  _529
REMARK  225  A    between atoms: _529  and  _530
REMARK  226  A    between atoms: _533  and  _535
REMARK  227  A    between atoms: _535  and  _536
REMARK  228  A    between atoms: _535  and  _538
REMARK  229  A    between atoms: _538  and  _539
REMARK  230  A    between atoms: _544  and  _545
REMARK                            x       y       z     vdW  Elec       q    Type
REMARK                         _______ _______ _______ _____ _____    ______ ____
ROOT
ATOM      1  O   HOH     1       9.270  14.334  21.249  0.00  0.00    +0.000 OA
ENDROOT
TORSDOF 0
REMARK  Name = ../refined-set-2016/1lpg/1lpg_pocket.pdb
REMARK  230 active torsions:
REMARK  status: ('A' for Active; 'I' for Inactive)
REMARK    1  A    between atoms: _1  and  _5
REMARK    2  A    between atoms: _5  and  _6
REMARK    3  A    between atoms: _5  and  _8
REMARK    4  A    between atoms: _8  and  _9
REMARK    5  A    between atoms: _12  and  _14
REMARK    6  A    between atoms: _14  and  _15
REMARK    7  A    between atoms: _14  and  _17
REMARK    8  A    between atoms: _20  and  _22
REMARK    9  A    between atoms: _22  and  _23
REMARK   10  A    between atoms: _22  and  _25
REMARK   11  A    between atoms: _25  and  _26
REMARK   12  A    between atoms: _31  and  _33
REMARK   13  A    between atoms: _33  and  _34
REMARK   14  A    between atoms: _33  and  _36
REMARK   15  A    between atoms: _36  and  _37
REMARK   16  A    between atoms: _37  and  _38
REMARK   17  A    between atoms: _43  and  _45
REMARK   18  A    between atoms: _45  and  _46
REMARK   19  A    between atoms: _45  and  _48
REMARK   20  A    between atoms: _48  and  _49
REMARK   21  A    between atoms: _55  and  _57
REMARK   22  A    between atoms: _57  and  _58
REMARK   23  A    between atoms: _57  and  _60
REMARK   24  A    between atoms: _60  and  _61
REMARK   25  A    between atoms: _64  and  _66
REMARK   26  A    between atoms: _66  and  _67
REMARK   27  A    between atoms: _66  and  _69
REMARK   28  A    between atoms: _69  and  _70
REMARK   29  A    between atoms: _70  and  _71
REMARK   30  A    between atoms: _71  and  _72
REMARK   31  A    between atoms: _72  and  _73
REMARK   32  A    between atoms: _77  and  _79
REMARK   33  A    between atoms: _79  and  _80
REMARK   34  A    between atoms: _79  and  _82
REMARK   35  A    between atoms: _82  and  _83
REMARK   36  A    between atoms: _83  and  _84
REMARK   37  A    between atoms: _87  and  _89
REMARK   38  A    between atoms: _89  and  _90
REMARK   39  A    between atoms: _89  and  _92
REMARK   40  A    between atoms: _92  and  _93
REMARK   41  A    between atoms: _96  and  _98
REMARK   42  A    between atoms: _98  and  _99
REMARK   43  A    between atoms: _98  and  _101
REMARK   44  A    between atoms: _101  and  _102
REMARK   45  A    between atoms: _107  and  _108
REMARK   46  A    between atoms: _110  and  _112
REMARK   47  A    between atoms: _112  and  _113
REMARK   48  A    between atoms: _112  and  _115
REMARK   49  A    between atoms: _115  and  _116
REMARK   50  A    between atoms: _119  and  _121
REMARK   51  A    between atoms: _121  and  _122
REMARK   52  A    between atoms: _121  and  _124
REMARK   53  A    between atoms: _124  and  _125
REMARK   54  A    between atoms: _128  and  _130
REMARK   55  A    between atoms: _130  and  _131
REMARK   56  A    between atoms: _130  and  _133
REMARK   57  A    between atoms: _136  and  _138
REMARK   58  A    between atoms: _138  and  _139
REMARK   59  A    between atoms: _141  and  _143
REMARK   60  A    between atoms: _143  and  _144
REMARK   61  A    between atoms: _143  and  _146
REMARK   62  A    between atoms: _146  and  _147
REMARK   63  A    between atoms: _147  and  _148
REMARK   64  A    between atoms: _148  and  _149
REMARK   65  A    between atoms: _158  and  _160
REMARK   66  A    between atoms: _160  and  _161
REMARK   67  A    between atoms: _160  and  _163
REMARK   68  A    between atoms: _163  and  _164
REMARK   69  A    between atoms: _167  and  _169
REMARK   70  A    between atoms: _169  and  _170
REMARK   71  A    between atoms: _169  and  _172
REMARK   72  A    between atoms: _172  and  _173
REMARK   73  A    between atoms: _178  and  _180
REMARK   74  A    between atoms: _180  and  _181
REMARK   75  A    between atoms: _180  and  _183
REMARK   76  A    between atoms: _183  and  _184
REMARK   77  A    between atoms: _184  and  _185
REMARK   78  A    between atoms: _188  and  _190
REMARK   79  A    between atoms: _190  and  _191
REMARK   80  A    between atoms: _190  and  _193
REMARK   81  A    between atoms: _193  and  _194
REMARK   82  A    between atoms: _194  and  _195
REMARK   83  A    between atoms: _195  and  _196
REMARK   84  A    between atoms: _196  and  _197
REMARK   85  A    between atoms: _201  and  _203
REMARK   86  A    between atoms: _203  and  _204
REMARK   87  A    between atoms: _206  and  _208
REMARK   88  A    between atoms: _208  and  _209
REMARK   89  A    between atoms: _208  and  _211
REMARK   90  A    between atoms: _211  and  _212
REMARK   91  A    between atoms: _212  and  _213
REMARK   92  A    between atoms: _213  and  _214
REMARK   93  A    between atoms: _223  and  _225
REMARK   94  A    between atoms: _225  and  _226
REMARK   95  A    between atoms: _225  and  _228
REMARK   96  A    between atoms: _228  and  _229
REMARK   97  A    between atoms: _229  and  _230
REMARK   98  A    between atoms: _235  and  _237
REMARK   99  A    between atoms: _237  and  _238
REMARK  100  A    between atoms: _237  and  _240
REMARK  101  A    between atoms: _240  and  _241
REMARK  102  A    between atoms: _244  and  _246
REMARK  103  A    between atoms: _246  and  _247
REMARK  104  A    between atoms: _246  and  _249
REMARK  105  A    between atoms: _252  and  _254
REMARK  106  A    between atoms: _254  and  _255
REMARK  107  A    between atoms: _254  and  _257
REMARK  108  A    between atoms: _257  and  _258
REMARK  109  A    between atoms: _260  and  _262
REMARK  110  A    between atoms: _262  and  _263
REMARK  111  A    between atoms: _262  and  _265
REMARK  112  A    between atoms: _265  and  _266
REMARK  113  A    between atoms: _268  and  _270
REMARK  114  A    between atoms: _270  and  _271
REMARK  115  A    between atoms: _270  and  _273
REMARK  116  A    between atoms: _273  and  _274
REMARK  117  A    between atoms: _280  and  _282
REMARK  118  A    between atoms: _282  and  _283
REMARK  119  A    between atoms: _282  and  _285
REMARK  120  A    between atoms: _285  and  _286
REMARK  121  A    between atoms: _289  and  _291
REMARK  122  A    between atoms: _291  and  _292
REMARK  123  A    between atoms: _291  and  _294
REMARK  124  A    between atoms: _294  and  _295
REMARK  125  A    between atoms: _298  and  _300
REMARK  126  A    between atoms: _300  and  _301
REMARK  127  A    between atoms: _300  and  _303
REMARK  128  A    between atoms: _303  and  _304
REMARK  129  A    between atoms: _307  and  _309
REMARK  130  A    between atoms: _309  and  _310
REMARK  131  A    between atoms: _309  and  _312
REMARK  132  A    between atoms: _312  and  _313
REMARK  133  A    between atoms: _313  and  _314
REMARK  134  A    between atoms: _316  and  _318
REMARK  135  A    between atoms: _318  and  _319
REMARK  136  A    between atoms: _318  and  _321
REMARK  137  A    between atoms: _323  and  _325
REMARK  138  A    between atoms: _325  and  _326
REMARK  139  A    between atoms: _329  and  _331
REMARK  140  A    between atoms: _331  and  _332
REMARK  141  A    between atoms: _334  and  _336
REMARK  142  A    between atoms: _336  and  _337
REMARK  143  A    between atoms: _336  and  _339
REMARK  144  A    between atoms: _339  and  _340
REMARK  145  A    between atoms: _340  and  _341
REMARK  146  A    between atoms: _344  and  _346
REMARK  147  A    between atoms: _346  and  _347
REMARK  148  A    between atoms: _346  and  _349
REMARK  149  A    between atoms: _349  and  _350
REMARK  150  A    between atoms: _353  and  _355
REMARK  151  A    between atoms: _355  and  _356
REMARK  152  A    between atoms: _359  and  _361
REMARK  153  A    between atoms: _361  and  _362
REMARK  154  A    between atoms: _361  and  _364
REMARK  155  A    between atoms: _364  and  _365
REMARK  156  A    between atoms: _365  and  _468
REMARK  157  A    between atoms: _366  and  _368
REMARK  158  A    between atoms: _368  and  _369
REMARK  159  A    between atoms: _368  and  _371
REMARK  160  A    between atoms: _371  and  _372
REMARK  161  A    between atoms: _372  and  _373
REMARK  162  A    between atoms: _378  and  _380
REMARK  163  A    between atoms: _380  and  _381
REMARK  164  A    between atoms: _383  and  _385
REMARK  165  A    between atoms: _385  and  _386
REMARK  166  A    between atoms: _385  and  _388
REMARK  167  A    between atoms: _388  and  _389
REMARK  168  A    between atoms: _392  and  _394
REMARK  169  A    between atoms: _394  and  _395
REMARK  170  A    between atoms: _394  and  _397
REMARK  171  A    between atoms: _397  and  _398
REMARK  172  A    between atoms: _400  and  _402
REMARK  173  A    between atoms: _402  and  _403
REMARK  174  A    between atoms: _405  and  _407
REMARK  175  A    between atoms: _407  and  _408
REMARK  176  A    between atoms: _410  and  _412
REMARK  177  A    between atoms: _412  and  _413
REMARK  178  A    between atoms: _412  and  _415
REMARK  179  A    between atoms: _418  and  _420
REMARK  180  A    between atoms: _420  and  _421
REMARK  181  A    between atoms: _420  and  _423
REMARK  182  A    between atoms: _423  and  _424
REMARK  183  A    between atoms: _426  and  _428
REMARK  184  A    between atoms: _428  and  _429
REMARK  185  A    between atoms: _428  and  _431
REMARK  186  A    between atoms: _431  and  _432
REMARK  187  A    between atoms: _442  and  _444
REMARK  188  A    between atoms: _444  and  _445
REMARK  189  A    between atoms: _447  and  _449
REMARK  190  A    between atoms: _449  and  _450
REMARK  191  A    between atoms: _449  and  _452
REMARK  192  A    between atoms: _452  and  _453
REMARK  193  A    between atoms: _453  and  _454
REMARK  194  A    between atoms: _457  and  _459
REMARK  195  A    between atoms: _459  and  _460
REMARK  196  A    between atoms: _462  and  _464
REMARK  197  A    between atoms: _464  and  _465
REMARK  198  A    between atoms: _464  and  _467
REMARK  199  A    between atoms: _467  and  _468
REMARK  200  A    between atoms: _469  and  _471
REMARK  201  A    between atoms: _471  and  _472
REMARK  202  A    between atoms: _475  and  _477
REMARK  203  A    between atoms: _477  and  _478
REMARK  204  A    between atoms: _477  and  _480
REMARK  205  A    between atoms: _480  and  _481
REMARK  206  A    between atoms: _481  and  _482
REMARK  207  A    between atoms: _482  and  _483
REMARK  208  A    between atoms: _492  and  _494
REMARK  209  A    between atoms: _494  and  _495
REMARK  210  A    between atoms: _494  and  _497
REMARK  211  A    between atoms: _497  and  _498
REMARK  212  A    between atoms: _498  and  _499
REMARK  213  A    between atoms: _499  and  _500
REMARK  214  A    between atoms: _500  and  _501
REMARK  215  A    between atoms: _505  and  _507
REMARK  216  A    between atoms: _507  and  _508
REMARK  217  A    between atoms: _507  and  _510
REMARK  218  A    between atoms: _510  and  _511
REMARK  219  A    between atoms: _516  and  _517
REMARK  220  A    between atoms: _519  and  _521
REMARK  221  A    between atoms: _521  and  _522
REMARK  222  A    between atoms: _524  and  _526
REMARK  223  A    between atoms: _526  and  _527
REMARK  224  A    between atoms: _526  and  _529
REMARK  225  A    between atoms: _529  and  _530
REMARK  226  A    between atoms: _533  and  _535
REMARK  227  A    between atoms: _535  and  _536
REMARK  228  A    between atoms: _535  and  _538
REMARK  229  A    between atoms: _538  and  _539
REMARK  230  A    between atoms: _544  and  _545
REMARK                            x       y       z     vdW  Elec       q    Type
REMARK                         _______ _______ _______ _____ _____    ______ ____
ROOT
ATOM      1  O   HOH     1       1.577   1.695  23.937  0.00  0.00    +0.000 OA
ENDROOT
TORSDOF 0
REMARK  Name = ../refined-set-2016/1lpg/1lpg_pocket.pdb
REMARK  230 active torsions:
REMARK  status: ('A' for Active; 'I' for Inactive)
REMARK    1  A    between atoms: _1  and  _5
REMARK    2  A    between atoms: _5  and  _6
REMARK    3  A    between atoms: _5  and  _8
REMARK    4  A    between atoms: _8  and  _9
REMARK    5  A    between atoms: _12  and  _14
REMARK    6  A    between atoms: _14  and  _15
REMARK    7  A    between atoms: _14  and  _17
REMARK    8  A    between atoms: _20  and  _22
REMARK    9  A    between atoms: _22  and  _23
REMARK   10  A    between atoms: _22  and  _25
REMARK   11  A    between atoms: _25  and  _26
REMARK   12  A    between atoms: _31  and  _33
REMARK   13  A    between atoms: _33  and  _34
REMARK   14  A    between atoms: _33  and  _36
REMARK   15  A    between atoms: _36  and  _37
REMARK   16  A    between atoms: _37  and  _38
REMARK   17  A    between atoms: _43  and  _45
REMARK   18  A    between atoms: _45  and  _46
REMARK   19  A    between atoms: _45  and  _48
REMARK   20  A    between atoms: _48  and  _49
REMARK   21  A    between atoms: _55  and  _57
REMARK   22  A    between atoms: _57  and  _58
REMARK   23  A    between atoms: _57  and  _60
REMARK   24  A    between atoms: _60  and  _61
REMARK   25  A    between atoms: _64  and  _66
REMARK   26  A    between atoms: _66  and  _67
REMARK   27  A    between atoms: _66  and  _69
REMARK   28  A    between atoms: _69  and  _70
REMARK   29  A    between atoms: _70  and  _71
REMARK   30  A    between atoms: _71  and  _72
REMARK   31  A    between atoms: _72  and  _73
REMARK   32  A    between atoms: _77  and  _79
REMARK   33  A    between atoms: _79  and  _80
REMARK   34  A    between atoms: _79  and  _82
REMARK   35  A    between atoms: _82  and  _83
REMARK   36  A    between atoms: _83  and  _84
REMARK   37  A    between atoms: _87  and  _89
REMARK   38  A    between atoms: _89  and  _90
REMARK   39  A    between atoms: _89  and  _92
REMARK   40  A    between atoms: _92  and  _93
REMARK   41  A    between atoms: _96  and  _98
REMARK   42  A    between atoms: _98  and  _99
REMARK   43  A    between atoms: _98  and  _101
REMARK   44  A    between atoms: _101  and  _102
REMARK   45  A    between atoms: _107  and  _108
REMARK   46  A    between atoms: _110  and  _112
REMARK   47  A    between atoms: _112  and  _113
REMARK   48  A    between atoms: _112  and  _115
REMARK   49  A    between atoms: _115  and  _116
REMARK   50  A    between atoms: _119  and  _121
REMARK   51  A    between atoms: _121  and  _122
REMARK   52  A    between atoms: _121  and  _124
REMARK   53  A    between atoms: _124  and  _125
REMARK   54  A    between atoms: _128  and  _130
REMARK   55  A    between atoms: _130  and  _131
REMARK   56  A    between atoms: _130  and  _133
REMARK   57  A    between atoms: _136  and  _138
REMARK   58  A    between atoms: _138  and  _139
REMARK   59  A    between atoms: _141  and  _143
REMARK   60  A    between atoms: _143  and  _144
REMARK   61  A    between atoms: _143  and  _146
REMARK   62  A    between atoms: _146  and  _147
REMARK   63  A    between atoms: _147  and  _148
REMARK   64  A    between atoms: _148  and  _149
REMARK   65  A    between atoms: _158  and  _160
REMARK   66  A    between atoms: _160  and  _161
REMARK   67  A    between atoms: _160  and  _163
REMARK   68  A    between atoms: _163  and  _164
REMARK   69  A    between atoms: _167  and  _169
REMARK   70  A    between atoms: _169  and  _170
REMARK   71  A    between atoms: _169  and  _172
REMARK   72  A    between atoms: _172  and  _173
REMARK   73  A    between atoms: _178  and  _180
REMARK   74  A    between atoms: _180  and  _181
REMARK   75  A    between atoms: _180  and  _183
REMARK   76  A    between atoms: _183  and  _184
REMARK   77  A    between atoms: _184  and  _185
REMARK   78  A    between atoms: _188  and  _190
REMARK   79  A    between atoms: _190  and  _191
REMARK   80  A    between atoms: _190  and  _193
REMARK   81  A    between atoms: _193  and  _194
REMARK   82  A    between atoms: _194  and  _195
REMARK   83  A    between atoms: _195  and  _196
REMARK   84  A    between atoms: _196  and  _197
REMARK   85  A    between atoms: _201  and  _203
REMARK   86  A    between atoms: _203  and  _204
REMARK   87  A    between atoms: _206  and  _208
REMARK   88  A    between atoms: _208  and  _209
REMARK   89  A    between atoms: _208  and  _211
REMARK   90  A    between atoms: _211  and  _212
REMARK   91  A    between atoms: _212  and  _213
REMARK   92  A    between atoms: _213  and  _214
REMARK   93  A    between atoms: _223  and  _225
REMARK   94  A    between atoms: _225  and  _226
REMARK   95  A    between atoms: _225  and  _228
REMARK   96  A    between atoms: _228  and  _229
REMARK   97  A    between atoms: _229  and  _230
REMARK   98  A    between atoms: _235  and  _237
REMARK   99  A    between atoms: _237  and  _238
REMARK  100  A    between atoms: _237  and  _240
REMARK  101  A    between atoms: _240  and  _241
REMARK  102  A    between atoms: _244  and  _246
REMARK  103  A    between atoms: _246  and  _247
REMARK  104  A    between atoms: _246  and  _249
REMARK  105  A    between atoms: _252  and  _254
REMARK  106  A    between atoms: _254  and  _255
REMARK  107  A    between atoms: _254  and  _257
REMARK  108  A    between atoms: _257  and  _258
REMARK  109  A    between atoms: _260  and  _262
REMARK  110  A    between atoms: _262  and  _263
REMARK  111  A    between atoms: _262  and  _265
REMARK  112  A    between atoms: _265  and  _266
REMARK  113  A    between atoms: _268  and  _270
REMARK  114  A    between atoms: _270  and  _271
REMARK  115  A    between atoms: _270  and  _273
REMARK  116  A    between atoms: _273  and  _274
REMARK  117  A    between atoms: _280  and  _282
REMARK  118  A    between atoms: _282  and  _283
REMARK  119  A    between atoms: _282  and  _285
REMARK  120  A    between atoms: _285  and  _286
REMARK  121  A    between atoms: _289  and  _291
REMARK  122  A    between atoms: _291  and  _292
REMARK  123  A    between atoms: _291  and  _294
REMARK  124  A    between atoms: _294  and  _295
REMARK  125  A    between atoms: _298  and  _300
REMARK  126  A    between atoms: _300  and  _301
REMARK  127  A    between atoms: _300  and  _303
REMARK  128  A    between atoms: _303  and  _304
REMARK  129  A    between atoms: _307  and  _309
REMARK  130  A    between atoms: _309  and  _310
REMARK  131  A    between atoms: _309  and  _312
REMARK  132  A    between atoms: _312  and  _313
REMARK  133  A    between atoms: _313  and  _314
REMARK  134  A    between atoms: _316  and  _318
REMARK  135  A    between atoms: _318  and  _319
REMARK  136  A    between atoms: _318  and  _321
REMARK  137  A    between atoms: _323  and  _325
REMARK  138  A    between atoms: _325  and  _326
REMARK  139  A    between atoms: _329  and  _331
REMARK  140  A    between atoms: _331  and  _332
REMARK  141  A    between atoms: _334  and  _336
REMARK  142  A    between atoms: _336  and  _337
REMARK  143  A    between atoms: _336  and  _339
REMARK  144  A    between atoms: _339  and  _340
REMARK  145  A    between atoms: _340  and  _341
REMARK  146  A    between atoms: _344  and  _346
REMARK  147  A    between atoms: _346  and  _347
REMARK  148  A    between atoms: _346  and  _349
REMARK  149  A    between atoms: _349  and  _350
REMARK  150  A    between atoms: _353  and  _355
REMARK  151  A    between atoms: _355  and  _356
REMARK  152  A    between atoms: _359  and  _361
REMARK  153  A    between atoms: _361  and  _362
REMARK  154  A    between atoms: _361  and  _364
REMARK  155  A    between atoms: _364  and  _365
REMARK  156  A    between atoms: _365  and  _468
REMARK  157  A    between atoms: _366  and  _368
REMARK  158  A    between atoms: _368  and  _369
REMARK  159  A    between atoms: _368  and  _371
REMARK  160  A    between atoms: _371  and  _372
REMARK  161  A    between atoms: _372  and  _373
REMARK  162  A    between atoms: _378  and  _380
REMARK  163  A    between atoms: _380  and  _381
REMARK  164  A    between atoms: _383  and  _385
REMARK  165  A    between atoms: _385  and  _386
REMARK  166  A    between atoms: _385  and  _388
REMARK  167  A    between atoms: _388  and  _389
REMARK  168  A    between atoms: _392  and  _394
REMARK  169  A    between atoms: _394  and  _395
REMARK  170  A    between atoms: _394  and  _397
REMARK  171  A    between atoms: _397  and  _398
REMARK  172  A    between atoms: _400  and  _402
REMARK  173  A    between atoms: _402  and  _403
REMARK  174  A    between atoms: _405  and  _407
REMARK  175  A    between atoms: _407  and  _408
REMARK  176  A    between atoms: _410  and  _412
REMARK  177  A    between atoms: _412  and  _413
REMARK  178  A    between atoms: _412  and  _415
REMARK  179  A    between atoms: _418  and  _420
REMARK  180  A    between atoms: _420  and  _421
REMARK  181  A    between atoms: _420  and  _423
REMARK  182  A    between atoms: _423  and  _424
REMARK  183  A    between atoms: _426  and  _428
REMARK  184  A    between atoms: _428  and  _429
REMARK  185  A    between atoms: _428  and  _431
REMARK  186  A    between atoms: _431  and  _432
REMARK  187  A    between atoms: _442  and  _444
REMARK  188  A    between atoms: _444  and  _445
REMARK  189  A    between atoms: _447  and  _449
REMARK  190  A    between atoms: _449  and  _450
REMARK  191  A    between atoms: _449  and  _452
REMARK  192  A    between atoms: _452  and  _453
REMARK  193  A    between atoms: _453  and  _454
REMARK  194  A    between atoms: _457  and  _459
REMARK  195  A    between atoms: _459  and  _460
REMARK  196  A    between atoms: _462  and  _464
REMARK  197  A    between atoms: _464  and  _465
REMARK  198  A    between atoms: _464  and  _467
REMARK  199  A    between atoms: _467  and  _468
REMARK  200  A    between atoms: _469  and  _471
REMARK  201  A    between atoms: _471  and  _472
REMARK  202  A    between atoms: _475  and  _477
REMARK  203  A    between atoms: _477  and  _478
REMARK  204  A    between atoms: _477  and  _480
REMARK  205  A    between atoms: _480  and  _481
REMARK  206  A    between atoms: _481  and  _482
REMARK  207  A    between atoms: _482  and  _483
REMARK  208  A    between atoms: _492  and  _494
REMARK  209  A    between atoms: _494  and  _495
REMARK  210  A    between atoms: _494  and  _497
REMARK  211  A    between atoms: _497  and  _498
REMARK  212  A    between atoms: _498  and  _499
REMARK  213  A    between atoms: _499  and  _500
REMARK  214  A    between atoms: _500  and  _501
REMARK  215  A    between atoms: _505  and  _507
REMARK  216  A    between atoms: _507  and  _508
REMARK  217  A    between atoms: _507  and  _510
REMARK  218  A    between atoms: _510  and  _511
REMARK  219  A    between atoms: _516  and  _517
REMARK  220  A    between atoms: _519  and  _521
REMARK  221  A    between atoms: _521  and  _522
REMARK  222  A    between atoms: _524  and  _526
REMARK  223  A    between atoms: _526  and  _527
REMARK  224  A    between atoms: _526  and  _529
REMARK  225  A    between atoms: _529  and  _530
REMARK  226  A    between atoms: _533  and  _535
REMARK  227  A    between atoms: _535  and  _536
REMARK  228  A    between atoms: _535  and  _538
REMARK  229  A    between atoms: _538  and  _539
REMARK  230  A    between atoms: _544  and  _545
REMARK                            x       y       z     vdW  Elec       q    Type
REMARK                         _______ _______ _______ _____ _____    ______ ____
ROOT
ATOM      1  O   HOH     1      -1.297  10.159  26.722  0.00  0.00    +0.000 OA
ENDROOT
TORSDOF 0
REMARK  Name = ../refined-set-2016/1lpg/1lpg_pocket.pdb
REMARK  230 active torsions:
REMARK  status: ('A' for Active; 'I' for Inactive)
REMARK    1  A    between atoms: _1  and  _5
REMARK    2  A    between atoms: _5  and  _6
REMARK    3  A    between atoms: _5  and  _8
REMARK    4  A    between atoms: _8  and  _9
REMARK    5  A    between atoms: _12  and  _14
REMARK    6  A    between atoms: _14  and  _15
REMARK    7  A    between atoms: _14  and  _17
REMARK    8  A    between atoms: _20  and  _22
REMARK    9  A    between atoms: _22  and  _23
REMARK   10  A    between atoms: _22  and  _25
REMARK   11  A    between atoms: _25  and  _26
REMARK   12  A    between atoms: _31  and  _33
REMARK   13  A    between atoms: _33  and  _34
REMARK   14  A    between atoms: _33  and  _36
REMARK   15  A    between atoms: _36  and  _37
REMARK   16  A    between atoms: _37  and  _38
REMARK   17  A    between atoms: _43  and  _45
REMARK   18  A    between atoms: _45  and  _46
REMARK   19  A    between atoms: _45  and  _48
REMARK   20  A    between atoms: _48  and  _49
REMARK   21  A    between atoms: _55  and  _57
REMARK   22  A    between atoms: _57  and  _58
REMARK   23  A    between atoms: _57  and  _60
REMARK   24  A    between atoms: _60  and  _61
REMARK   25  A    between atoms: _64  and  _66
REMARK   26  A    between atoms: _66  and  _67
REMARK   27  A    between atoms: _66  and  _69
REMARK   28  A    between atoms: _69  and  _70
REMARK   29  A    between atoms: _70  and  _71
REMARK   30  A    between atoms: _71  and  _72
REMARK   31  A    between atoms: _72  and  _73
REMARK   32  A    between atoms: _77  and  _79
REMARK   33  A    between atoms: _79  and  _80
REMARK   34  A    between atoms: _79  and  _82
REMARK   35  A    between atoms: _82  and  _83
REMARK   36  A    between atoms: _83  and  _84
REMARK   37  A    between atoms: _87  and  _89
REMARK   38  A    between atoms: _89  and  _90
REMARK   39  A    between atoms: _89  and  _92
REMARK   40  A    between atoms: _92  and  _93
REMARK   41  A    between atoms: _96  and  _98
REMARK   42  A    between atoms: _98  and  _99
REMARK   43  A    between atoms: _98  and  _101
REMARK   44  A    between atoms: _101  and  _102
REMARK   45  A    between atoms: _107  and  _108
REMARK   46  A    between atoms: _110  and  _112
REMARK   47  A    between atoms: _112  and  _113
REMARK   48  A    between atoms: _112  and  _115
REMARK   49  A    between atoms: _115  and  _116
REMARK   50  A    between atoms: _119  and  _121
REMARK   51  A    between atoms: _121  and  _122
REMARK   52  A    between atoms: _121  and  _124
REMARK   53  A    between atoms: _124  and  _125
REMARK   54  A    between atoms: _128  and  _130
REMARK   55  A    between atoms: _130  and  _131
REMARK   56  A    between atoms: _130  and  _133
REMARK   57  A    between atoms: _136  and  _138
REMARK   58  A    between atoms: _138  and  _139
REMARK   59  A    between atoms: _141  and  _143
REMARK   60  A    between atoms: _143  and  _144
REMARK   61  A    between atoms: _143  and  _146
REMARK   62  A    between atoms: _146  and  _147
REMARK   63  A    between atoms: _147  and  _148
REMARK   64  A    between atoms: _148  and  _149
REMARK   65  A    between atoms: _158  and  _160
REMARK   66  A    between atoms: _160  and  _161
REMARK   67  A    between atoms: _160  and  _163
REMARK   68  A    between atoms: _163  and  _164
REMARK   69  A    between atoms: _167  and  _169
REMARK   70  A    between atoms: _169  and  _170
REMARK   71  A    between atoms: _169  and  _172
REMARK   72  A    between atoms: _172  and  _173
REMARK   73  A    between atoms: _178  and  _180
REMARK   74  A    between atoms: _180  and  _181
REMARK   75  A    between atoms: _180  and  _183
REMARK   76  A    between atoms: _183  and  _184
REMARK   77  A    between atoms: _184  and  _185
REMARK   78  A    between atoms: _188  and  _190
REMARK   79  A    between atoms: _190  and  _191
REMARK   80  A    between atoms: _190  and  _193
REMARK   81  A    between atoms: _193  and  _194
REMARK   82  A    between atoms: _194  and  _195
REMARK   83  A    between atoms: _195  and  _196
REMARK   84  A    between atoms: _196  and  _197
REMARK   85  A    between atoms: _201  and  _203
REMARK   86  A    between atoms: _203  and  _204
REMARK   87  A    between atoms: _206  and  _208
REMARK   88  A    between atoms: _208  and  _209
REMARK   89  A    between atoms: _208  and  _211
REMARK   90  A    between atoms: _211  and  _212
REMARK   91  A    between atoms: _212  and  _213
REMARK   92  A    between atoms: _213  and  _214
REMARK   93  A    between atoms: _223  and  _225
REMARK   94  A    between atoms: _225  and  _226
REMARK   95  A    between atoms: _225  and  _228
REMARK   96  A    between atoms: _228  and  _229
REMARK   97  A    between atoms: _229  and  _230
REMARK   98  A    between atoms: _235  and  _237
REMARK   99  A    between atoms: _237  and  _238
REMARK  100  A    between atoms: _237  and  _240
REMARK  101  A    between atoms: _240  and  _241
REMARK  102  A    between atoms: _244  and  _246
REMARK  103  A    between atoms: _246  and  _247
REMARK  104  A    between atoms: _246  and  _249
REMARK  105  A    between atoms: _252  and  _254
REMARK  106  A    between atoms: _254  and  _255
REMARK  107  A    between atoms: _254  and  _257
REMARK  108  A    between atoms: _257  and  _258
REMARK  109  A    between atoms: _260  and  _262
REMARK  110  A    between atoms: _262  and  _263
REMARK  111  A    between atoms: _262  and  _265
REMARK  112  A    between atoms: _265  and  _266
REMARK  113  A    between atoms: _268  and  _270
REMARK  114  A    between atoms: _270  and  _271
REMARK  115  A    between atoms: _270  and  _273
REMARK  116  A    between atoms: _273  and  _274
REMARK  117  A    between atoms: _280  and  _282
REMARK  118  A    between atoms: _282  and  _283
REMARK  119  A    between atoms: _282  and  _285
REMARK  120  A    between atoms: _285  and  _286
REMARK  121  A    between atoms: _289  and  _291
REMARK  122  A    between atoms: _291  and  _292
REMARK  123  A    between atoms: _291  and  _294
REMARK  124  A    between atoms: _294  and  _295
REMARK  125  A    between atoms: _298  and  _300
REMARK  126  A    between atoms: _300  and  _301
REMARK  127  A    between atoms: _300  and  _303
REMARK  128  A    between atoms: _303  and  _304
REMARK  129  A    between atoms: _307  and  _309
REMARK  130  A    between atoms: _309  and  _310
REMARK  131  A    between atoms: _309  and  _312
REMARK  132  A    between atoms: _312  and  _313
REMARK  133  A    between atoms: _313  and  _314
REMARK  134  A    between atoms: _316  and  _318
REMARK  135  A    between atoms: _318  and  _319
REMARK  136  A    between atoms: _318  and  _321
REMARK  137  A    between atoms: _323  and  _325
REMARK  138  A    between atoms: _325  and  _326
REMARK  139  A    between atoms: _329  and  _331
REMARK  140  A    between atoms: _331  and  _332
REMARK  141  A    between atoms: _334  and  _336
REMARK  142  A    between atoms: _336  and  _337
REMARK  143  A    between atoms: _336  and  _339
REMARK  144  A    between atoms: _339  and  _340
REMARK  145  A    between atoms: _340  and  _341
REMARK  146  A    between atoms: _344  and  _346
REMARK  147  A    between atoms: _346  and  _347
REMARK  148  A    between atoms: _346  and  _349
REMARK  149  A    between atoms: _349  and  _350
REMARK  150  A    between atoms: _353  and  _355
REMARK  151  A    between atoms: _355  and  _356
REMARK  152  A    between atoms: _359  and  _361
REMARK  153  A    between atoms: _361  and  _362
REMARK  154  A    between atoms: _361  and  _364
REMARK  155  A    between atoms: _364  and  _365
REMARK  156  A    between atoms: _365  and  _468
REMARK  157  A    between atoms: _366  and  _368
REMARK  158  A    between atoms: _368  and  _369
REMARK  159  A    between atoms: _368  and  _371
REMARK  160  A    between atoms: _371  and  _372
REMARK  161  A    between atoms: _372  and  _373
REMARK  162  A    between atoms: _378  and  _380
REMARK  163  A    between atoms: _380  and  _381
REMARK  164  A    between atoms: _383  and  _385
REMARK  165  A    between atoms: _385  and  _386
REMARK  166  A    between atoms: _385  and  _388
REMARK  167  A    between atoms: _388  and  _389
REMARK  168  A    between atoms: _392  and  _394
REMARK  169  A    between atoms: _394  and  _395
REMARK  170  A    between atoms: _394  and  _397
REMARK  171  A    between atoms: _397  and  _398
REMARK  172  A    between atoms: _400  and  _402
REMARK  173  A    between atoms: _402  and  _403
REMARK  174  A    between atoms: _405  and  _407
REMARK  175  A    between atoms: _407  and  _408
REMARK  176  A    between atoms: _410  and  _412
REMARK  177  A    between atoms: _412  and  _413
REMARK  178  A    between atoms: _412  and  _415
REMARK  179  A    between atoms: _418  and  _420
REMARK  180  A    between atoms: _420  and  _421
REMARK  181  A    between atoms: _420  and  _423
REMARK  182  A    between atoms: _423  and  _424
REMARK  183  A    between atoms: _426  and  _428
REMARK  184  A    between atoms: _428  and  _429
REMARK  185  A    between atoms: _428  and  _431
REMARK  186  A    between atoms: _431  and  _432
REMARK  187  A    between atoms: _442  and  _444
REMARK  188  A    between atoms: _444  and  _445
REMARK  189  A    between atoms: _447  and  _449
REMARK  190  A    between atoms: _449  and  _450
REMARK  191  A    between atoms: _449  and  _452
REMARK  192  A    between atoms: _452  and  _453
REMARK  193  A    between atoms: _453  and  _454
REMARK  194  A    between atoms: _457  and  _459
REMARK  195  A    between atoms: _459  and  _460
REMARK  196  A    between atoms: _462  and  _464
REMARK  197  A    between atoms: _464  and  _465
REMARK  198  A    between atoms: _464  and  _467
REMARK  199  A    between atoms: _467  and  _468
REMARK  200  A    between atoms: _469  and  _471
REMARK  201  A    between atoms: _471  and  _472
REMARK  202  A    between atoms: _475  and  _477
REMARK  203  A    between atoms: _477  and  _478
REMARK  204  A    between atoms: _477  and  _480
REMARK  205  A    between atoms: _480  and  _481
REMARK  206  A    between atoms: _481  and  _482
REMARK  207  A    between atoms: _482  and  _483
REMARK  208  A    between atoms: _492  and  _494
REMARK  209  A    between atoms: _494  and  _495
REMARK  210  A    between atoms: _494  and  _497
REMARK  211  A    between atoms: _497  and  _498
REMARK  212  A    between atoms: _498  and  _499
REMARK  213  A    between atoms: _499  and  _500
REMARK  214  A    between atoms: _500  and  _501
REMARK  215  A    between atoms: _505  and  _507
REMARK  216  A    between atoms: _507  and  _508
REMARK  217  A    between atoms: _507  and  _510
REMARK  218  A    between atoms: _510  and  _511
REMARK  219  A    between atoms: _516  and  _517
REMARK  220  A    between atoms: _519  and  _521
REMARK  221  A    between atoms: _521  and  _522
REMARK  222  A    between atoms: _524  and  _526
REMARK  223  A    between atoms: _526  and  _527
REMARK  224  A    between atoms: _526  and  _529
REMARK  225  A    between atoms: _529  and  _530
REMARK  226  A    between atoms: _533  and  _535
REMARK  227  A    between atoms: _535  and  _536
REMARK  228  A    between atoms: _535  and  _538
REMARK  229  A    between atoms: _538  and  _539
REMARK  230  A    between atoms: _544  and  _545
REMARK                            x       y       z     vdW  Elec       q    Type
REMARK                         _______ _______ _______ _____ _____    ______ ____
ROOT
ATOM      1  O   HOH     1      -0.534  10.838  33.298  0.00  0.00    +0.000 OA
ENDROOT
TORSDOF 0
REMARK  Name = ../refined-set-2016/1lpg/1lpg_pocket.pdb
REMARK  230 active torsions:
REMARK  status: ('A' for Active; 'I' for Inactive)
REMARK    1  A    between atoms: _1  and  _5
REMARK    2  A    between atoms: _5  and  _6
REMARK    3  A    between atoms: _5  and  _8
REMARK    4  A    between atoms: _8  and  _9
REMARK    5  A    between atoms: _12  and  _14
REMARK    6  A    between atoms: _14  and  _15
REMARK    7  A    between atoms: _14  and  _17
REMARK    8  A    between atoms: _20  and  _22
REMARK    9  A    between atoms: _22  and  _23
REMARK   10  A    between atoms: _22  and  _25
REMARK   11  A    between atoms: _25  and  _26
REMARK   12  A    between atoms: _31  and  _33
REMARK   13  A    between atoms: _33  and  _34
REMARK   14  A    between atoms: _33  and  _36
REMARK   15  A    between atoms: _36  and  _37
REMARK   16  A    between atoms: _37  and  _38
REMARK   17  A    between atoms: _43  and  _45
REMARK   18  A    between atoms: _45  and  _46
REMARK   19  A    between atoms: _45  and  _48
REMARK   20  A    between atoms: _48  and  _49
REMARK   21  A    between atoms: _55  and  _57
REMARK   22  A    between atoms: _57  and  _58
REMARK   23  A    between atoms: _57  and  _60
REMARK   24  A    between atoms: _60  and  _61
REMARK   25  A    between atoms: _64  and  _66
REMARK   26  A    between atoms: _66  and  _67
REMARK   27  A    between atoms: _66  and  _69
REMARK   28  A    between atoms: _69  and  _70
REMARK   29  A    between atoms: _70  and  _71
REMARK   30  A    between atoms: _71  and  _72
REMARK   31  A    between atoms: _72  and  _73
REMARK   32  A    between atoms: _77  and  _79
REMARK   33  A    between atoms: _79  and  _80
REMARK   34  A    between atoms: _79  and  _82
REMARK   35  A    between atoms: _82  and  _83
REMARK   36  A    between atoms: _83  and  _84
REMARK   37  A    between atoms: _87  and  _89
REMARK   38  A    between atoms: _89  and  _90
REMARK   39  A    between atoms: _89  and  _92
REMARK   40  A    between atoms: _92  and  _93
REMARK   41  A    between atoms: _96  and  _98
REMARK   42  A    between atoms: _98  and  _99
REMARK   43  A    between atoms: _98  and  _101
REMARK   44  A    between atoms: _101  and  _102
REMARK   45  A    between atoms: _107  and  _108
REMARK   46  A    between atoms: _110  and  _112
REMARK   47  A    between atoms: _112  and  _113
REMARK   48  A    between atoms: _112  and  _115
REMARK   49  A    between atoms: _115  and  _116
REMARK   50  A    between atoms: _119  and  _121
REMARK   51  A    between atoms: _121  and  _122
REMARK   52  A    between atoms: _121  and  _124
REMARK   53  A    between atoms: _124  and  _125
REMARK   54  A    between atoms: _128  and  _130
REMARK   55  A    between atoms: _130  and  _131
REMARK   56  A    between atoms: _130  and  _133
REMARK   57  A    between atoms: _136  and  _138
REMARK   58  A    between atoms: _138  and  _139
REMARK   59  A    between atoms: _141  and  _143
REMARK   60  A    between atoms: _143  and  _144
REMARK   61  A    between atoms: _143  and  _146
REMARK   62  A    between atoms: _146  and  _147
REMARK   63  A    between atoms: _147  and  _148
REMARK   64  A    between atoms: _148  and  _149
REMARK   65  A    between atoms: _158  and  _160
REMARK   66  A    between atoms: _160  and  _161
REMARK   67  A    between atoms: _160  and  _163
REMARK   68  A    between atoms: _163  and  _164
REMARK   69  A    between atoms: _167  and  _169
REMARK   70  A    between atoms: _169  and  _170
REMARK   71  A    between atoms: _169  and  _172
REMARK   72  A    between atoms: _172  and  _173
REMARK   73  A    between atoms: _178  and  _180
REMARK   74  A    between atoms: _180  and  _181
REMARK   75  A    between atoms: _180  and  _183
REMARK   76  A    between atoms: _183  and  _184
REMARK   77  A    between atoms: _184  and  _185
REMARK   78  A    between atoms: _188  and  _190
REMARK   79  A    between atoms: _190  and  _191
REMARK   80  A    between atoms: _190  and  _193
REMARK   81  A    between atoms: _193  and  _194
REMARK   82  A    between atoms: _194  and  _195
REMARK   83  A    between atoms: _195  and  _196
REMARK   84  A    between atoms: _196  and  _197
REMARK   85  A    between atoms: _201  and  _203
REMARK   86  A    between atoms: _203  and  _204
REMARK   87  A    between atoms: _206  and  _208
REMARK   88  A    between atoms: _208  and  _209
REMARK   89  A    between atoms: _208  and  _211
REMARK   90  A    between atoms: _211  and  _212
REMARK   91  A    between atoms: _212  and  _213
REMARK   92  A    between atoms: _213  and  _214
REMARK   93  A    between atoms: _223  and  _225
REMARK   94  A    between atoms: _225  and  _226
REMARK   95  A    between atoms: _225  and  _228
REMARK   96  A    between atoms: _228  and  _229
REMARK   97  A    between atoms: _229  and  _230
REMARK   98  A    between atoms: _235  and  _237
REMARK   99  A    between atoms: _237  and  _238
REMARK  100  A    between atoms: _237  and  _240
REMARK  101  A    between atoms: _240  and  _241
REMARK  102  A    between atoms: _244  and  _246
REMARK  103  A    between atoms: _246  and  _247
REMARK  104  A    between atoms: _246  and  _249
REMARK  105  A    between atoms: _252  and  _254
REMARK  106  A    between atoms: _254  and  _255
REMARK  107  A    between atoms: _254  and  _257
REMARK  108  A    between atoms: _257  and  _258
REMARK  109  A    between atoms: _260  and  _262
REMARK  110  A    between atoms: _262  and  _263
REMARK  111  A    between atoms: _262  and  _265
REMARK  112  A    between atoms: _265  and  _266
REMARK  113  A    between atoms: _268  and  _270
REMARK  114  A    between atoms: _270  and  _271
REMARK  115  A    between atoms: _270  and  _273
REMARK  116  A    between atoms: _273  and  _274
REMARK  117  A    between atoms: _280  and  _282
REMARK  118  A    between atoms: _282  and  _283
REMARK  119  A    between atoms: _282  and  _285
REMARK  120  A    between atoms: _285  and  _286
REMARK  121  A    between atoms: _289  and  _291
REMARK  122  A    between atoms: _291  and  _292
REMARK  123  A    between atoms: _291  and  _294
REMARK  124  A    between atoms: _294  and  _295
REMARK  125  A    between atoms: _298  and  _300
REMARK  126  A    between atoms: _300  and  _301
REMARK  127  A    between atoms: _300  and  _303
REMARK  128  A    between atoms: _303  and  _304
REMARK  129  A    between atoms: _307  and  _309
REMARK  130  A    between atoms: _309  and  _310
REMARK  131  A    between atoms: _309  and  _312
REMARK  132  A    between atoms: _312  and  _313
REMARK  133  A    between atoms: _313  and  _314
REMARK  134  A    between atoms: _316  and  _318
REMARK  135  A    between atoms: _318  and  _319
REMARK  136  A    between atoms: _318  and  _321
REMARK  137  A    between atoms: _323  and  _325
REMARK  138  A    between atoms: _325  and  _326
REMARK  139  A    between atoms: _329  and  _331
REMARK  140  A    between atoms: _331  and  _332
REMARK  141  A    between atoms: _334  and  _336
REMARK  142  A    between atoms: _336  and  _337
REMARK  143  A    between atoms: _336  and  _339
REMARK  144  A    between atoms: _339  and  _340
REMARK  145  A    between atoms: _340  and  _341
REMARK  146  A    between atoms: _344  and  _346
REMARK  147  A    between atoms: _346  and  _347
REMARK  148  A    between atoms: _346  and  _349
REMARK  149  A    between atoms: _349  and  _350
REMARK  150  A    between atoms: _353  and  _355
REMARK  151  A    between atoms: _355  and  _356
REMARK  152  A    between atoms: _359  and  _361
REMARK  153  A    between atoms: _361  and  _362
REMARK  154  A    between atoms: _361  and  _364
REMARK  155  A    between atoms: _364  and  _365
REMARK  156  A    between atoms: _365  and  _468
REMARK  157  A    between atoms: _366  and  _368
REMARK  158  A    between atoms: _368  and  _369
REMARK  159  A    between atoms: _368  and  _371
REMARK  160  A    between atoms: _371  and  _372
REMARK  161  A    between atoms: _372  and  _373
REMARK  162  A    between atoms: _378  and  _380
REMARK  163  A    between atoms: _380  and  _381
REMARK  164  A    between atoms: _383  and  _385
REMARK  165  A    between atoms: _385  and  _386
REMARK  166  A    between atoms: _385  and  _388
REMARK  167  A    between atoms: _388  and  _389
REMARK  168  A    between atoms: _392  and  _394
REMARK  169  A    between atoms: _394  and  _395
REMARK  170  A    between atoms: _394  and  _397
REMARK  171  A    between atoms: _397  and  _398
REMARK  172  A    between atoms: _400  and  _402
REMARK  173  A    between atoms: _402  and  _403
REMARK  174  A    between atoms: _405  and  _407
REMARK  175  A    between atoms: _407  and  _408
REMARK  176  A    between atoms: _410  and  _412
REMARK  177  A    between atoms: _412  and  _413
REMARK  178  A    between atoms: _412  and  _415
REMARK  179  A    between atoms: _418  and  _420
REMARK  180  A    between atoms: _420  and  _421
REMARK  181  A    between atoms: _420  and  _423
REMARK  182  A    between atoms: _423  and  _424
REMARK  183  A    between atoms: _426  and  _428
REMARK  184  A    between atoms: _428  and  _429
REMARK  185  A    between atoms: _428  and  _431
REMARK  186  A    between atoms: _431  and  _432
REMARK  187  A    between atoms: _442  and  _444
REMARK  188  A    between atoms: _444  and  _445
REMARK  189  A    between atoms: _447  and  _449
REMARK  190  A    between atoms: _449  and  _450
REMARK  191  A    between atoms: _449  and  _452
REMARK  192  A    between atoms: _452  and  _453
REMARK  193  A    between atoms: _453  and  _454
REMARK  194  A    between atoms: _457  and  _459
REMARK  195  A    between atoms: _459  and  _460
REMARK  196  A    between atoms: _462  and  _464
REMARK  197  A    between atoms: _464  and  _465
REMARK  198  A    between atoms: _464  and  _467
REMARK  199  A    between atoms: _467  and  _468
REMARK  200  A    between atoms: _469  and  _471
REMARK  201  A    between atoms: _471  and  _472
REMARK  202  A    between atoms: _475  and  _477
REMARK  203  A    between atoms: _477  and  _478
REMARK  204  A    between atoms: _477  and  _480
REMARK  205  A    between atoms: _480  and  _481
REMARK  206  A    between atoms: _481  and  _482
REMARK  207  A    between atoms: _482  and  _483
REMARK  208  A    between atoms: _492  and  _494
REMARK  209  A    between atoms: _494  and  _495
REMARK  210  A    between atoms: _494  and  _497
REMARK  211  A    between atoms: _497  and  _498
REMARK  212  A    between atoms: _498  and  _499
REMARK  213  A    between atoms: _499  and  _500
REMARK  214  A    between atoms: _500  and  _501
REMARK  215  A    between atoms: _505  and  _507
REMARK  216  A    between atoms: _507  and  _508
REMARK  217  A    between atoms: _507  and  _510
REMARK  218  A    between atoms: _510  and  _511
REMARK  219  A    between atoms: _516  and  _517
REMARK  220  A    between atoms: _519  and  _521
REMARK  221  A    between atoms: _521  and  _522
REMARK  222  A    between atoms: _524  and  _526
REMARK  223  A    between atoms: _526  and  _527
REMARK  224  A    between atoms: _526  and  _529
REMARK  225  A    between atoms: _529  and  _530
REMARK  226  A    between atoms: _533  and  _535
REMARK  227  A    between atoms: _535  and  _536
REMARK  228  A    between atoms: _535  and  _538
REMARK  229  A    between atoms: _538  and  _539
REMARK  230  A    between atoms: _544  and  _545
REMARK                            x       y       z     vdW  Elec       q    Type
REMARK                         _______ _______ _______ _____ _____    ______ ____
ROOT
ATOM      1  O   HOH     1      11.757  -1.182  17.607  0.00  0.00    +0.000 OA
ENDROOT
TORSDOF 0
REMARK  Name = ../refined-set-2016/1lpg/1lpg_pocket.pdb
REMARK  230 active torsions:
REMARK  status: ('A' for Active; 'I' for Inactive)
REMARK    1  A    between atoms: _1  and  _5
REMARK    2  A    between atoms: _5  and  _6
REMARK    3  A    between atoms: _5  and  _8
REMARK    4  A    between atoms: _8  and  _9
REMARK    5  A    between atoms: _12  and  _14
REMARK    6  A    between atoms: _14  and  _15
REMARK    7  A    between atoms: _14  and  _17
REMARK    8  A    between atoms: _20  and  _22
REMARK    9  A    between atoms: _22  and  _23
REMARK   10  A    between atoms: _22  and  _25
REMARK   11  A    between atoms: _25  and  _26
REMARK   12  A    between atoms: _31  and  _33
REMARK   13  A    between atoms: _33  and  _34
REMARK   14  A    between atoms: _33  and  _36
REMARK   15  A    between atoms: _36  and  _37
REMARK   16  A    between atoms: _37  and  _38
REMARK   17  A    between atoms: _43  and  _45
REMARK   18  A    between atoms: _45  and  _46
REMARK   19  A    between atoms: _45  and  _48
REMARK   20  A    between atoms: _48  and  _49
REMARK   21  A    between atoms: _55  and  _57
REMARK   22  A    between atoms: _57  and  _58
REMARK   23  A    between atoms: _57  and  _60
REMARK   24  A    between atoms: _60  and  _61
REMARK   25  A    between atoms: _64  and  _66
REMARK   26  A    between atoms: _66  and  _67
REMARK   27  A    between atoms: _66  and  _69
REMARK   28  A    between atoms: _69  and  _70
REMARK   29  A    between atoms: _70  and  _71
REMARK   30  A    between atoms: _71  and  _72
REMARK   31  A    between atoms: _72  and  _73
REMARK   32  A    between atoms: _77  and  _79
REMARK   33  A    between atoms: _79  and  _80
REMARK   34  A    between atoms: _79  and  _82
REMARK   35  A    between atoms: _82  and  _83
REMARK   36  A    between atoms: _83  and  _84
REMARK   37  A    between atoms: _87  and  _89
REMARK   38  A    between atoms: _89  and  _90
REMARK   39  A    between atoms: _89  and  _92
REMARK   40  A    between atoms: _92  and  _93
REMARK   41  A    between atoms: _96  and  _98
REMARK   42  A    between atoms: _98  and  _99
REMARK   43  A    between atoms: _98  and  _101
REMARK   44  A    between atoms: _101  and  _102
REMARK   45  A    between atoms: _107  and  _108
REMARK   46  A    between atoms: _110  and  _112
REMARK   47  A    between atoms: _112  and  _113
REMARK   48  A    between atoms: _112  and  _115
REMARK   49  A    between atoms: _115  and  _116
REMARK   50  A    between atoms: _119  and  _121
REMARK   51  A    between atoms: _121  and  _122
REMARK   52  A    between atoms: _121  and  _124
REMARK   53  A    between atoms: _124  and  _125
REMARK   54  A    between atoms: _128  and  _130
REMARK   55  A    between atoms: _130  and  _131
REMARK   56  A    between atoms: _130  and  _133
REMARK   57  A    between atoms: _136  and  _138
REMARK   58  A    between atoms: _138  and  _139
REMARK   59  A    between atoms: _141  and  _143
REMARK   60  A    between atoms: _143  and  _144
REMARK   61  A    between atoms: _143  and  _146
REMARK   62  A    between atoms: _146  and  _147
REMARK   63  A    between atoms: _147  and  _148
REMARK   64  A    between atoms: _148  and  _149
REMARK   65  A    between atoms: _158  and  _160
REMARK   66  A    between atoms: _160  and  _161
REMARK   67  A    between atoms: _160  and  _163
REMARK   68  A    between atoms: _163  and  _164
REMARK   69  A    between atoms: _167  and  _169
REMARK   70  A    between atoms: _169  and  _170
REMARK   71  A    between atoms: _169  and  _172
REMARK   72  A    between atoms: _172  and  _173
REMARK   73  A    between atoms: _178  and  _180
REMARK   74  A    between atoms: _180  and  _181
REMARK   75  A    between atoms: _180  and  _183
REMARK   76  A    between atoms: _183  and  _184
REMARK   77  A    between atoms: _184  and  _185
REMARK   78  A    between atoms: _188  and  _190
REMARK   79  A    between atoms: _190  and  _191
REMARK   80  A    between atoms: _190  and  _193
REMARK   81  A    between atoms: _193  and  _194
REMARK   82  A    between atoms: _194  and  _195
REMARK   83  A    between atoms: _195  and  _196
REMARK   84  A    between atoms: _196  and  _197
REMARK   85  A    between atoms: _201  and  _203
REMARK   86  A    between atoms: _203  and  _204
REMARK   87  A    between atoms: _206  and  _208
REMARK   88  A    between atoms: _208  and  _209
REMARK   89  A    between atoms: _208  and  _211
REMARK   90  A    between atoms: _211  and  _212
REMARK   91  A    between atoms: _212  and  _213
REMARK   92  A    between atoms: _213  and  _214
REMARK   93  A    between atoms: _223  and  _225
REMARK   94  A    between atoms: _225  and  _226
REMARK   95  A    between atoms: _225  and  _228
REMARK   96  A    between atoms: _228  and  _229
REMARK   97  A    between atoms: _229  and  _230
REMARK   98  A    between atoms: _235  and  _237
REMARK   99  A    between atoms: _237  and  _238
REMARK  100  A    between atoms: _237  and  _240
REMARK  101  A    between atoms: _240  and  _241
REMARK  102  A    between atoms: _244  and  _246
REMARK  103  A    between atoms: _246  and  _247
REMARK  104  A    between atoms: _246  and  _249
REMARK  105  A    between atoms: _252  and  _254
REMARK  106  A    between atoms: _254  and  _255
REMARK  107  A    between atoms: _254  and  _257
REMARK  108  A    between atoms: _257  and  _258
REMARK  109  A    between atoms: _260  and  _262
REMARK  110  A    between atoms: _262  and  _263
REMARK  111  A    between atoms: _262  and  _265
REMARK  112  A    between atoms: _265  and  _266
REMARK  113  A    between atoms: _268  and  _270
REMARK  114  A    between atoms: _270  and  _271
REMARK  115  A    between atoms: _270  and  _273
REMARK  116  A    between atoms: _273  and  _274
REMARK  117  A    between atoms: _280  and  _282
REMARK  118  A    between atoms: _282  and  _283
REMARK  119  A    between atoms: _282  and  _285
REMARK  120  A    between atoms: _285  and  _286
REMARK  121  A    between atoms: _289  and  _291
REMARK  122  A    between atoms: _291  and  _292
REMARK  123  A    between atoms: _291  and  _294
REMARK  124  A    between atoms: _294  and  _295
REMARK  125  A    between atoms: _298  and  _300
REMARK  126  A    between atoms: _300  and  _301
REMARK  127  A    between atoms: _300  and  _303
REMARK  128  A    between atoms: _303  and  _304
REMARK  129  A    between atoms: _307  and  _309
REMARK  130  A    between atoms: _309  and  _310
REMARK  131  A    between atoms: _309  and  _312
REMARK  132  A    between atoms: _312  and  _313
REMARK  133  A    between atoms: _313  and  _314
REMARK  134  A    between atoms: _316  and  _318
REMARK  135  A    between atoms: _318  and  _319
REMARK  136  A    between atoms: _318  and  _321
REMARK  137  A    between atoms: _323  and  _325
REMARK  138  A    between atoms: _325  and  _326
REMARK  139  A    between atoms: _329  and  _331
REMARK  140  A    between atoms: _331  and  _332
REMARK  141  A    between atoms: _334  and  _336
REMARK  142  A    between atoms: _336  and  _337
REMARK  143  A    between atoms: _336  and  _339
REMARK  144  A    between atoms: _339  and  _340
REMARK  145  A    between atoms: _340  and  _341
REMARK  146  A    between atoms: _344  and  _346
REMARK  147  A    between atoms: _346  and  _347
REMARK  148  A    between atoms: _346  and  _349
REMARK  149  A    between atoms: _349  and  _350
REMARK  150  A    between atoms: _353  and  _355
REMARK  151  A    between atoms: _355  and  _356
REMARK  152  A    between atoms: _359  and  _361
REMARK  153  A    between atoms: _361  and  _362
REMARK  154  A    between atoms: _361  and  _364
REMARK  155  A    between atoms: _364  and  _365
REMARK  156  A    between atoms: _365  and  _468
REMARK  157  A    between atoms: _366  and  _368
REMARK  158  A    between atoms: _368  and  _369
REMARK  159  A    between atoms: _368  and  _371
REMARK  160  A    between atoms: _371  and  _372
REMARK  161  A    between atoms: _372  and  _373
REMARK  162  A    between atoms: _378  and  _380
REMARK  163  A    between atoms: _380  and  _381
REMARK  164  A    between atoms: _383  and  _385
REMARK  165  A    between atoms: _385  and  _386
REMARK  166  A    between atoms: _385  and  _388
REMARK  167  A    between atoms: _388  and  _389
REMARK  168  A    between atoms: _392  and  _394
REMARK  169  A    between atoms: _394  and  _395
REMARK  170  A    between atoms: _394  and  _397
REMARK  171  A    between atoms: _397  and  _398
REMARK  172  A    between atoms: _400  and  _402
REMARK  173  A    between atoms: _402  and  _403
REMARK  174  A    between atoms: _405  and  _407
REMARK  175  A    between atoms: _407  and  _408
REMARK  176  A    between atoms: _410  and  _412
REMARK  177  A    between atoms: _412  and  _413
REMARK  178  A    between atoms: _412  and  _415
REMARK  179  A    between atoms: _418  and  _420
REMARK  180  A    between atoms: _420  and  _421
REMARK  181  A    between atoms: _420  and  _423
REMARK  182  A    between atoms: _423  and  _424
REMARK  183  A    between atoms: _426  and  _428
REMARK  184  A    between atoms: _428  and  _429
REMARK  185  A    between atoms: _428  and  _431
REMARK  186  A    between atoms: _431  and  _432
REMARK  187  A    between atoms: _442  and  _444
REMARK  188  A    between atoms: _444  and  _445
REMARK  189  A    between atoms: _447  and  _449
REMARK  190  A    between atoms: _449  and  _450
REMARK  191  A    between atoms: _449  and  _452
REMARK  192  A    between atoms: _452  and  _453
REMARK  193  A    between atoms: _453  and  _454
REMARK  194  A    between atoms: _457  and  _459
REMARK  195  A    between atoms: _459  and  _460
REMARK  196  A    between atoms: _462  and  _464
REMARK  197  A    between atoms: _464  and  _465
REMARK  198  A    between atoms: _464  and  _467
REMARK  199  A    between atoms: _467  and  _468
REMARK  200  A    between atoms: _469  and  _471
REMARK  201  A    between atoms: _471  and  _472
REMARK  202  A    between atoms: _475  and  _477
REMARK  203  A    between atoms: _477  and  _478
REMARK  204  A    between atoms: _477  and  _480
REMARK  205  A    between atoms: _480  and  _481
REMARK  206  A    between atoms: _481  and  _482
REMARK  207  A    between atoms: _482  and  _483
REMARK  208  A    between atoms: _492  and  _494
REMARK  209  A    between atoms: _494  and  _495
REMARK  210  A    between atoms: _494  and  _497
REMARK  211  A    between atoms: _497  and  _498
REMARK  212  A    between atoms: _498  and  _499
REMARK  213  A    between atoms: _499  and  _500
REMARK  214  A    between atoms: _500  and  _501
REMARK  215  A    between atoms: _505  and  _507
REMARK  216  A    between atoms: _507  and  _508
REMARK  217  A    between atoms: _507  and  _510
REMARK  218  A    between atoms: _510  and  _511
REMARK  219  A    between atoms: _516  and  _517
REMARK  220  A    between atoms: _519  and  _521
REMARK  221  A    between atoms: _521  and  _522
REMARK  222  A    between atoms: _524  and  _526
REMARK  223  A    between atoms: _526  and  _527
REMARK  224  A    between atoms: _526  and  _529
REMARK  225  A    between atoms: _529  and  _530
REMARK  226  A    between atoms: _533  and  _535
REMARK  227  A    between atoms: _535  and  _536
REMARK  228  A    between atoms: _535  and  _538
REMARK  229  A    between atoms: _538  and  _539
REMARK  230  A    between atoms: _544  and  _545
REMARK                            x       y       z     vdW  Elec       q    Type
REMARK                         _______ _______ _______ _____ _____    ______ ____
ROOT
ATOM      1  O   HOH     1       1.830  20.310  26.116  0.00  0.00    +0.000 OA
ENDROOT
TORSDOF 0
REMARK  Name = ../refined-set-2016/1lpg/1lpg_pocket.pdb
REMARK  230 active torsions:
REMARK  status: ('A' for Active; 'I' for Inactive)
REMARK    1  A    between atoms: _1  and  _5
REMARK    2  A    between atoms: _5  and  _6
REMARK    3  A    between atoms: _5  and  _8
REMARK    4  A    between atoms: _8  and  _9
REMARK    5  A    between atoms: _12  and  _14
REMARK    6  A    between atoms: _14  and  _15
REMARK    7  A    between atoms: _14  and  _17
REMARK    8  A    between atoms: _20  and  _22
REMARK    9  A    between atoms: _22  and  _23
REMARK   10  A    between atoms: _22  and  _25
REMARK   11  A    between atoms: _25  and  _26
REMARK   12  A    between atoms: _31  and  _33
REMARK   13  A    between atoms: _33  and  _34
REMARK   14  A    between atoms: _33  and  _36
REMARK   15  A    between atoms: _36  and  _37
REMARK   16  A    between atoms: _37  and  _38
REMARK   17  A    between atoms: _43  and  _45
REMARK   18  A    between atoms: _45  and  _46
REMARK   19  A    between atoms: _45  and  _48
REMARK   20  A    between atoms: _48  and  _49
REMARK   21  A    between atoms: _55  and  _57
REMARK   22  A    between atoms: _57  and  _58
REMARK   23  A    between atoms: _57  and  _60
REMARK   24  A    between atoms: _60  and  _61
REMARK   25  A    between atoms: _64  and  _66
REMARK   26  A    between atoms: _66  and  _67
REMARK   27  A    between atoms: _66  and  _69
REMARK   28  A    between atoms: _69  and  _70
REMARK   29  A    between atoms: _70  and  _71
REMARK   30  A    between atoms: _71  and  _72
REMARK   31  A    between atoms: _72  and  _73
REMARK   32  A    between atoms: _77  and  _79
REMARK   33  A    between atoms: _79  and  _80
REMARK   34  A    between atoms: _79  and  _82
REMARK   35  A    between atoms: _82  and  _83
REMARK   36  A    between atoms: _83  and  _84
REMARK   37  A    between atoms: _87  and  _89
REMARK   38  A    between atoms: _89  and  _90
REMARK   39  A    between atoms: _89  and  _92
REMARK   40  A    between atoms: _92  and  _93
REMARK   41  A    between atoms: _96  and  _98
REMARK   42  A    between atoms: _98  and  _99
REMARK   43  A    between atoms: _98  and  _101
REMARK   44  A    between atoms: _101  and  _102
REMARK   45  A    between atoms: _107  and  _108
REMARK   46  A    between atoms: _110  and  _112
REMARK   47  A    between atoms: _112  and  _113
REMARK   48  A    between atoms: _112  and  _115
REMARK   49  A    between atoms: _115  and  _116
REMARK   50  A    between atoms: _119  and  _121
REMARK   51  A    between atoms: _121  and  _122
REMARK   52  A    between atoms: _121  and  _124
REMARK   53  A    between atoms: _124  and  _125
REMARK   54  A    between atoms: _128  and  _130
REMARK   55  A    between atoms: _130  and  _131
REMARK   56  A    between atoms: _130  and  _133
REMARK   57  A    between atoms: _136  and  _138
REMARK   58  A    between atoms: _138  and  _139
REMARK   59  A    between atoms: _141  and  _143
REMARK   60  A    between atoms: _143  and  _144
REMARK   61  A    between atoms: _143  and  _146
REMARK   62  A    between atoms: _146  and  _147
REMARK   63  A    between atoms: _147  and  _148
REMARK   64  A    between atoms: _148  and  _149
REMARK   65  A    between atoms: _158  and  _160
REMARK   66  A    between atoms: _160  and  _161
REMARK   67  A    between atoms: _160  and  _163
REMARK   68  A    between atoms: _163  and  _164
REMARK   69  A    between atoms: _167  and  _169
REMARK   70  A    between atoms: _169  and  _170
REMARK   71  A    between atoms: _169  and  _172
REMARK   72  A    between atoms: _172  and  _173
REMARK   73  A    between atoms: _178  and  _180
REMARK   74  A    between atoms: _180  and  _181
REMARK   75  A    between atoms: _180  and  _183
REMARK   76  A    between atoms: _183  and  _184
REMARK   77  A    between atoms: _184  and  _185
REMARK   78  A    between atoms: _188  and  _190
REMARK   79  A    between atoms: _190  and  _191
REMARK   80  A    between atoms: _190  and  _193
REMARK   81  A    between atoms: _193  and  _194
REMARK   82  A    between atoms: _194  and  _195
REMARK   83  A    between atoms: _195  and  _196
REMARK   84  A    between atoms: _196  and  _197
REMARK   85  A    between atoms: _201  and  _203
REMARK   86  A    between atoms: _203  and  _204
REMARK   87  A    between atoms: _206  and  _208
REMARK   88  A    between atoms: _208  and  _209
REMARK   89  A    between atoms: _208  and  _211
REMARK   90  A    between atoms: _211  and  _212
REMARK   91  A    between atoms: _212  and  _213
REMARK   92  A    between atoms: _213  and  _214
REMARK   93  A    between atoms: _223  and  _225
REMARK   94  A    between atoms: _225  and  _226
REMARK   95  A    between atoms: _225  and  _228
REMARK   96  A    between atoms: _228  and  _229
REMARK   97  A    between atoms: _229  and  _230
REMARK   98  A    between atoms: _235  and  _237
REMARK   99  A    between atoms: _237  and  _238
REMARK  100  A    between atoms: _237  and  _240
REMARK  101  A    between atoms: _240  and  _241
REMARK  102  A    between atoms: _244  and  _246
REMARK  103  A    between atoms: _246  and  _247
REMARK  104  A    between atoms: _246  and  _249
REMARK  105  A    between atoms: _252  and  _254
REMARK  106  A    between atoms: _254  and  _255
REMARK  107  A    between atoms: _254  and  _257
REMARK  108  A    between atoms: _257  and  _258
REMARK  109  A    between atoms: _260  and  _262
REMARK  110  A    between atoms: _262  and  _263
REMARK  111  A    between atoms: _262  and  _265
REMARK  112  A    between atoms: _265  and  _266
REMARK  113  A    between atoms: _268  and  _270
REMARK  114  A    between atoms: _270  and  _271
REMARK  115  A    between atoms: _270  and  _273
REMARK  116  A    between atoms: _273  and  _274
REMARK  117  A    between atoms: _280  and  _282
REMARK  118  A    between atoms: _282  and  _283
REMARK  119  A    between atoms: _282  and  _285
REMARK  120  A    between atoms: _285  and  _286
REMARK  121  A    between atoms: _289  and  _291
REMARK  122  A    between atoms: _291  and  _292
REMARK  123  A    between atoms: _291  and  _294
REMARK  124  A    between atoms: _294  and  _295
REMARK  125  A    between atoms: _298  and  _300
REMARK  126  A    between atoms: _300  and  _301
REMARK  127  A    between atoms: _300  and  _303
REMARK  128  A    between atoms: _303  and  _304
REMARK  129  A    between atoms: _307  and  _309
REMARK  130  A    between atoms: _309  and  _310
REMARK  131  A    between atoms: _309  and  _312
REMARK  132  A    between atoms: _312  and  _313
REMARK  133  A    between atoms: _313  and  _314
REMARK  134  A    between atoms: _316  and  _318
REMARK  135  A    between atoms: _318  and  _319
REMARK  136  A    between atoms: _318  and  _321
REMARK  137  A    between atoms: _323  and  _325
REMARK  138  A    between atoms: _325  and  _326
REMARK  139  A    between atoms: _329  and  _331
REMARK  140  A    between atoms: _331  and  _332
REMARK  141  A    between atoms: _334  and  _336
REMARK  142  A    between atoms: _336  and  _337
REMARK  143  A    between atoms: _336  and  _339
REMARK  144  A    between atoms: _339  and  _340
REMARK  145  A    between atoms: _340  and  _341
REMARK  146  A    between atoms: _344  and  _346
REMARK  147  A    between atoms: _346  and  _347
REMARK  148  A    between atoms: _346  and  _349
REMARK  149  A    between atoms: _349  and  _350
REMARK  150  A    between atoms: _353  and  _355
REMARK  151  A    between atoms: _355  and  _356
REMARK  152  A    between atoms: _359  and  _361
REMARK  153  A    between atoms: _361  and  _362
REMARK  154  A    between atoms: _361  and  _364
REMARK  155  A    between atoms: _364  and  _365
REMARK  156  A    between atoms: _365  and  _468
REMARK  157  A    between atoms: _366  and  _368
REMARK  158  A    between atoms: _368  and  _369
REMARK  159  A    between atoms: _368  and  _371
REMARK  160  A    between atoms: _371  and  _372
REMARK  161  A    between atoms: _372  and  _373
REMARK  162  A    between atoms: _378  and  _380
REMARK  163  A    between atoms: _380  and  _381
REMARK  164  A    between atoms: _383  and  _385
REMARK  165  A    between atoms: _385  and  _386
REMARK  166  A    between atoms: _385  and  _388
REMARK  167  A    between atoms: _388  and  _389
REMARK  168  A    between atoms: _392  and  _394
REMARK  169  A    between atoms: _394  and  _395
REMARK  170  A    between atoms: _394  and  _397
REMARK  171  A    between atoms: _397  and  _398
REMARK  172  A    between atoms: _400  and  _402
REMARK  173  A    between atoms: _402  and  _403
REMARK  174  A    between atoms: _405  and  _407
REMARK  175  A    between atoms: _407  and  _408
REMARK  176  A    between atoms: _410  and  _412
REMARK  177  A    between atoms: _412  and  _413
REMARK  178  A    between atoms: _412  and  _415
REMARK  179  A    between atoms: _418  and  _420
REMARK  180  A    between atoms: _420  and  _421
REMARK  181  A    between atoms: _420  and  _423
REMARK  182  A    between atoms: _423  and  _424
REMARK  183  A    between atoms: _426  and  _428
REMARK  184  A    between atoms: _428  and  _429
REMARK  185  A    between atoms: _428  and  _431
REMARK  186  A    between atoms: _431  and  _432
REMARK  187  A    between atoms: _442  and  _444
REMARK  188  A    between atoms: _444  and  _445
REMARK  189  A    between atoms: _447  and  _449
REMARK  190  A    between atoms: _449  and  _450
REMARK  191  A    between atoms: _449  and  _452
REMARK  192  A    between atoms: _452  and  _453
REMARK  193  A    between atoms: _453  and  _454
REMARK  194  A    between atoms: _457  and  _459
REMARK  195  A    between atoms: _459  and  _460
REMARK  196  A    between atoms: _462  and  _464
REMARK  197  A    between atoms: _464  and  _465
REMARK  198  A    between atoms: _464  and  _467
REMARK  199  A    between atoms: _467  and  _468
REMARK  200  A    between atoms: _469  and  _471
REMARK  201  A    between atoms: _471  and  _472
REMARK  202  A    between atoms: _475  and  _477
REMARK  203  A    between atoms: _477  and  _478
REMARK  204  A    between atoms: _477  and  _480
REMARK  205  A    between atoms: _480  and  _481
REMARK  206  A    between atoms: _481  and  _482
REMARK  207  A    between atoms: _482  and  _483
REMARK  208  A    between atoms: _492  and  _494
REMARK  209  A    between atoms: _494  and  _495
REMARK  210  A    between atoms: _494  and  _497
REMARK  211  A    between atoms: _497  and  _498
REMARK  212  A    between atoms: _498  and  _499
REMARK  213  A    between atoms: _499  and  _500
REMARK  214  A    between atoms: _500  and  _501
REMARK  215  A    between atoms: _505  and  _507
REMARK  216  A    between atoms: _507  and  _508
REMARK  217  A    between atoms: _507  and  _510
REMARK  218  A    between atoms: _510  and  _511
REMARK  219  A    between atoms: _516  and  _517
REMARK  220  A    between atoms: _519  and  _521
REMARK  221  A    between atoms: _521  and  _522
REMARK  222  A    between atoms: _524  and  _526
REMARK  223  A    between atoms: _526  and  _527
REMARK  224  A    between atoms: _526  and  _529
REMARK  225  A    between atoms: _529  and  _530
REMARK  226  A    between atoms: _533  and  _535
REMARK  227  A    between atoms: _535  and  _536
REMARK  228  A    between atoms: _535  and  _538
REMARK  229  A    between atoms: _538  and  _539
REMARK  230  A    between atoms: _544  and  _545
REMARK                            x       y       z     vdW  Elec       q    Type
REMARK                         _______ _______ _______ _____ _____    ______ ____
ROOT
ATOM      1  O   HOH     1      -0.274   7.243  26.301  0.00  0.00    +0.000 OA
ENDROOT
TORSDOF 0
REMARK  Name = ../refined-set-2016/1lpg/1lpg_pocket.pdb
REMARK  230 active torsions:
REMARK  status: ('A' for Active; 'I' for Inactive)
REMARK    1  A    between atoms: _1  and  _5
REMARK    2  A    between atoms: _5  and  _6
REMARK    3  A    between atoms: _5  and  _8
REMARK    4  A    between atoms: _8  and  _9
REMARK    5  A    between atoms: _12  and  _14
REMARK    6  A    between atoms: _14  and  _15
REMARK    7  A    between atoms: _14  and  _17
REMARK    8  A    between atoms: _20  and  _22
REMARK    9  A    between atoms: _22  and  _23
REMARK   10  A    between atoms: _22  and  _25
REMARK   11  A    between atoms: _25  and  _26
REMARK   12  A    between atoms: _31  and  _33
REMARK   13  A    between atoms: _33  and  _34
REMARK   14  A    between atoms: _33  and  _36
REMARK   15  A    between atoms: _36  and  _37
REMARK   16  A    between atoms: _37  and  _38
REMARK   17  A    between atoms: _43  and  _45
REMARK   18  A    between atoms: _45  and  _46
REMARK   19  A    between atoms: _45  and  _48
REMARK   20  A    between atoms: _48  and  _49
REMARK   21  A    between atoms: _55  and  _57
REMARK   22  A    between atoms: _57  and  _58
REMARK   23  A    between atoms: _57  and  _60
REMARK   24  A    between atoms: _60  and  _61
REMARK   25  A    between atoms: _64  and  _66
REMARK   26  A    between atoms: _66  and  _67
REMARK   27  A    between atoms: _66  and  _69
REMARK   28  A    between atoms: _69  and  _70
REMARK   29  A    between atoms: _70  and  _71
REMARK   30  A    between atoms: _71  and  _72
REMARK   31  A    between atoms: _72  and  _73
REMARK   32  A    between atoms: _77  and  _79
REMARK   33  A    between atoms: _79  and  _80
REMARK   34  A    between atoms: _79  and  _82
REMARK   35  A    between atoms: _82  and  _83
REMARK   36  A    between atoms: _83  and  _84
REMARK   37  A    between atoms: _87  and  _89
REMARK   38  A    between atoms: _89  and  _90
REMARK   39  A    between atoms: _89  and  _92
REMARK   40  A    between atoms: _92  and  _93
REMARK   41  A    between atoms: _96  and  _98
REMARK   42  A    between atoms: _98  and  _99
REMARK   43  A    between atoms: _98  and  _101
REMARK   44  A    between atoms: _101  and  _102
REMARK   45  A    between atoms: _107  and  _108
REMARK   46  A    between atoms: _110  and  _112
REMARK   47  A    between atoms: _112  and  _113
REMARK   48  A    between atoms: _112  and  _115
REMARK   49  A    between atoms: _115  and  _116
REMARK   50  A    between atoms: _119  and  _121
REMARK   51  A    between atoms: _121  and  _122
REMARK   52  A    between atoms: _121  and  _124
REMARK   53  A    between atoms: _124  and  _125
REMARK   54  A    between atoms: _128  and  _130
REMARK   55  A    between atoms: _130  and  _131
REMARK   56  A    between atoms: _130  and  _133
REMARK   57  A    between atoms: _136  and  _138
REMARK   58  A    between atoms: _138  and  _139
REMARK   59  A    between atoms: _141  and  _143
REMARK   60  A    between atoms: _143  and  _144
REMARK   61  A    between atoms: _143  and  _146
REMARK   62  A    between atoms: _146  and  _147
REMARK   63  A    between atoms: _147  and  _148
REMARK   64  A    between atoms: _148  and  _149
REMARK   65  A    between atoms: _158  and  _160
REMARK   66  A    between atoms: _160  and  _161
REMARK   67  A    between atoms: _160  and  _163
REMARK   68  A    between atoms: _163  and  _164
REMARK   69  A    between atoms: _167  and  _169
REMARK   70  A    between atoms: _169  and  _170
REMARK   71  A    between atoms: _169  and  _172
REMARK   72  A    between atoms: _172  and  _173
REMARK   73  A    between atoms: _178  and  _180
REMARK   74  A    between atoms: _180  and  _181
REMARK   75  A    between atoms: _180  and  _183
REMARK   76  A    between atoms: _183  and  _184
REMARK   77  A    between atoms: _184  and  _185
REMARK   78  A    between atoms: _188  and  _190
REMARK   79  A    between atoms: _190  and  _191
REMARK   80  A    between atoms: _190  and  _193
REMARK   81  A    between atoms: _193  and  _194
REMARK   82  A    between atoms: _194  and  _195
REMARK   83  A    between atoms: _195  and  _196
REMARK   84  A    between atoms: _196  and  _197
REMARK   85  A    between atoms: _201  and  _203
REMARK   86  A    between atoms: _203  and  _204
REMARK   87  A    between atoms: _206  and  _208
REMARK   88  A    between atoms: _208  and  _209
REMARK   89  A    between atoms: _208  and  _211
REMARK   90  A    between atoms: _211  and  _212
REMARK   91  A    between atoms: _212  and  _213
REMARK   92  A    between atoms: _213  and  _214
REMARK   93  A    between atoms: _223  and  _225
REMARK   94  A    between atoms: _225  and  _226
REMARK   95  A    between atoms: _225  and  _228
REMARK   96  A    between atoms: _228  and  _229
REMARK   97  A    between atoms: _229  and  _230
REMARK   98  A    between atoms: _235  and  _237
REMARK   99  A    between atoms: _237  and  _238
REMARK  100  A    between atoms: _237  and  _240
REMARK  101  A    between atoms: _240  and  _241
REMARK  102  A    between atoms: _244  and  _246
REMARK  103  A    between atoms: _246  and  _247
REMARK  104  A    between atoms: _246  and  _249
REMARK  105  A    between atoms: _252  and  _254
REMARK  106  A    between atoms: _254  and  _255
REMARK  107  A    between atoms: _254  and  _257
REMARK  108  A    between atoms: _257  and  _258
REMARK  109  A    between atoms: _260  and  _262
REMARK  110  A    between atoms: _262  and  _263
REMARK  111  A    between atoms: _262  and  _265
REMARK  112  A    between atoms: _265  and  _266
REMARK  113  A    between atoms: _268  and  _270
REMARK  114  A    between atoms: _270  and  _271
REMARK  115  A    between atoms: _270  and  _273
REMARK  116  A    between atoms: _273  and  _274
REMARK  117  A    between atoms: _280  and  _282
REMARK  118  A    between atoms: _282  and  _283
REMARK  119  A    between atoms: _282  and  _285
REMARK  120  A    between atoms: _285  and  _286
REMARK  121  A    between atoms: _289  and  _291
REMARK  122  A    between atoms: _291  and  _292
REMARK  123  A    between atoms: _291  and  _294
REMARK  124  A    between atoms: _294  and  _295
REMARK  125  A    between atoms: _298  and  _300
REMARK  126  A    between atoms: _300  and  _301
REMARK  127  A    between atoms: _300  and  _303
REMARK  128  A    between atoms: _303  and  _304
REMARK  129  A    between atoms: _307  and  _309
REMARK  130  A    between atoms: _309  and  _310
REMARK  131  A    between atoms: _309  and  _312
REMARK  132  A    between atoms: _312  and  _313
REMARK  133  A    between atoms: _313  and  _314
REMARK  134  A    between atoms: _316  and  _318
REMARK  135  A    between atoms: _318  and  _319
REMARK  136  A    between atoms: _318  and  _321
REMARK  137  A    between atoms: _323  and  _325
REMARK  138  A    between atoms: _325  and  _326
REMARK  139  A    between atoms: _329  and  _331
REMARK  140  A    between atoms: _331  and  _332
REMARK  141  A    between atoms: _334  and  _336
REMARK  142  A    between atoms: _336  and  _337
REMARK  143  A    between atoms: _336  and  _339
REMARK  144  A    between atoms: _339  and  _340
REMARK  145  A    between atoms: _340  and  _341
REMARK  146  A    between atoms: _344  and  _346
REMARK  147  A    between atoms: _346  and  _347
REMARK  148  A    between atoms: _346  and  _349
REMARK  149  A    between atoms: _349  and  _350
REMARK  150  A    between atoms: _353  and  _355
REMARK  151  A    between atoms: _355  and  _356
REMARK  152  A    between atoms: _359  and  _361
REMARK  153  A    between atoms: _361  and  _362
REMARK  154  A    between atoms: _361  and  _364
REMARK  155  A    between atoms: _364  and  _365
REMARK  156  A    between atoms: _365  and  _468
REMARK  157  A    between atoms: _366  and  _368
REMARK  158  A    between atoms: _368  and  _369
REMARK  159  A    between atoms: _368  and  _371
REMARK  160  A    between atoms: _371  and  _372
REMARK  161  A    between atoms: _372  and  _373
REMARK  162  A    between atoms: _378  and  _380
REMARK  163  A    between atoms: _380  and  _381
REMARK  164  A    between atoms: _383  and  _385
REMARK  165  A    between atoms: _385  and  _386
REMARK  166  A    between atoms: _385  and  _388
REMARK  167  A    between atoms: _388  and  _389
REMARK  168  A    between atoms: _392  and  _394
REMARK  169  A    between atoms: _394  and  _395
REMARK  170  A    between atoms: _394  and  _397
REMARK  171  A    between atoms: _397  and  _398
REMARK  172  A    between atoms: _400  and  _402
REMARK  173  A    between atoms: _402  and  _403
REMARK  174  A    between atoms: _405  and  _407
REMARK  175  A    between atoms: _407  and  _408
REMARK  176  A    between atoms: _410  and  _412
REMARK  177  A    between atoms: _412  and  _413
REMARK  178  A    between atoms: _412  and  _415
REMARK  179  A    between atoms: _418  and  _420
REMARK  180  A    between atoms: _420  and  _421
REMARK  181  A    between atoms: _420  and  _423
REMARK  182  A    between atoms: _423  and  _424
REMARK  183  A    between atoms: _426  and  _428
REMARK  184  A    between atoms: _428  and  _429
REMARK  185  A    between atoms: _428  and  _431
REMARK  186  A    between atoms: _431  and  _432
REMARK  187  A    between atoms: _442  and  _444
REMARK  188  A    between atoms: _444  and  _445
REMARK  189  A    between atoms: _447  and  _449
REMARK  190  A    between atoms: _449  and  _450
REMARK  191  A    between atoms: _449  and  _452
REMARK  192  A    between atoms: _452  and  _453
REMARK  193  A    between atoms: _453  and  _454
REMARK  194  A    between atoms: _457  and  _459
REMARK  195  A    between atoms: _459  and  _460
REMARK  196  A    between atoms: _462  and  _464
REMARK  197  A    between atoms: _464  and  _465
REMARK  198  A    between atoms: _464  and  _467
REMARK  199  A    between atoms: _467  and  _468
REMARK  200  A    between atoms: _469  and  _471
REMARK  201  A    between atoms: _471  and  _472
REMARK  202  A    between atoms: _475  and  _477
REMARK  203  A    between atoms: _477  and  _478
REMARK  204  A    between atoms: _477  and  _480
REMARK  205  A    between atoms: _480  and  _481
REMARK  206  A    between atoms: _481  and  _482
REMARK  207  A    between atoms: _482  and  _483
REMARK  208  A    between atoms: _492  and  _494
REMARK  209  A    between atoms: _494  and  _495
REMARK  210  A    between atoms: _494  and  _497
REMARK  211  A    between atoms: _497  and  _498
REMARK  212  A    between atoms: _498  and  _499
REMARK  213  A    between atoms: _499  and  _500
REMARK  214  A    between atoms: _500  and  _501
REMARK  215  A    between atoms: _505  and  _507
REMARK  216  A    between atoms: _507  and  _508
REMARK  217  A    between atoms: _507  and  _510
REMARK  218  A    between atoms: _510  and  _511
REMARK  219  A    between atoms: _516  and  _517
REMARK  220  A    between atoms: _519  and  _521
REMARK  221  A    between atoms: _521  and  _522
REMARK  222  A    between atoms: _524  and  _526
REMARK  223  A    between atoms: _526  and  _527
REMARK  224  A    between atoms: _526  and  _529
REMARK  225  A    between atoms: _529  and  _530
REMARK  226  A    between atoms: _533  and  _535
REMARK  227  A    between atoms: _535  and  _536
REMARK  228  A    between atoms: _535  and  _538
REMARK  229  A    between atoms: _538  and  _539
REMARK  230  A    between atoms: _544  and  _545
REMARK                            x       y       z     vdW  Elec       q    Type
REMARK                         _______ _______ _______ _____ _____    ______ ____
ROOT
ATOM      1  O   HOH     1      13.797   7.178  26.115  0.00  0.00    +0.000 OA
ENDROOT
TORSDOF 0
REMARK  Name = ../refined-set-2016/1lpg/1lpg_pocket.pdb
REMARK  230 active torsions:
REMARK  status: ('A' for Active; 'I' for Inactive)
REMARK    1  A    between atoms: _1  and  _5
REMARK    2  A    between atoms: _5  and  _6
REMARK    3  A    between atoms: _5  and  _8
REMARK    4  A    between atoms: _8  and  _9
REMARK    5  A    between atoms: _12  and  _14
REMARK    6  A    between atoms: _14  and  _15
REMARK    7  A    between atoms: _14  and  _17
REMARK    8  A    between atoms: _20  and  _22
REMARK    9  A    between atoms: _22  and  _23
REMARK   10  A    between atoms: _22  and  _25
REMARK   11  A    between atoms: _25  and  _26
REMARK   12  A    between atoms: _31  and  _33
REMARK   13  A    between atoms: _33  and  _34
REMARK   14  A    between atoms: _33  and  _36
REMARK   15  A    between atoms: _36  and  _37
REMARK   16  A    between atoms: _37  and  _38
REMARK   17  A    between atoms: _43  and  _45
REMARK   18  A    between atoms: _45  and  _46
REMARK   19  A    between atoms: _45  and  _48
REMARK   20  A    between atoms: _48  and  _49
REMARK   21  A    between atoms: _55  and  _57
REMARK   22  A    between atoms: _57  and  _58
REMARK   23  A    between atoms: _57  and  _60
REMARK   24  A    between atoms: _60  and  _61
REMARK   25  A    between atoms: _64  and  _66
REMARK   26  A    between atoms: _66  and  _67
REMARK   27  A    between atoms: _66  and  _69
REMARK   28  A    between atoms: _69  and  _70
REMARK   29  A    between atoms: _70  and  _71
REMARK   30  A    between atoms: _71  and  _72
REMARK   31  A    between atoms: _72  and  _73
REMARK   32  A    between atoms: _77  and  _79
REMARK   33  A    between atoms: _79  and  _80
REMARK   34  A    between atoms: _79  and  _82
REMARK   35  A    between atoms: _82  and  _83
REMARK   36  A    between atoms: _83  and  _84
REMARK   37  A    between atoms: _87  and  _89
REMARK   38  A    between atoms: _89  and  _90
REMARK   39  A    between atoms: _89  and  _92
REMARK   40  A    between atoms: _92  and  _93
REMARK   41  A    between atoms: _96  and  _98
REMARK   42  A    between atoms: _98  and  _99
REMARK   43  A    between atoms: _98  and  _101
REMARK   44  A    between atoms: _101  and  _102
REMARK   45  A    between atoms: _107  and  _108
REMARK   46  A    between atoms: _110  and  _112
REMARK   47  A    between atoms: _112  and  _113
REMARK   48  A    between atoms: _112  and  _115
REMARK   49  A    between atoms: _115  and  _116
REMARK   50  A    between atoms: _119  and  _121
REMARK   51  A    between atoms: _121  and  _122
REMARK   52  A    between atoms: _121  and  _124
REMARK   53  A    between atoms: _124  and  _125
REMARK   54  A    between atoms: _128  and  _130
REMARK   55  A    between atoms: _130  and  _131
REMARK   56  A    between atoms: _130  and  _133
REMARK   57  A    between atoms: _136  and  _138
REMARK   58  A    between atoms: _138  and  _139
REMARK   59  A    between atoms: _141  and  _143
REMARK   60  A    between atoms: _143  and  _144
REMARK   61  A    between atoms: _143  and  _146
REMARK   62  A    between atoms: _146  and  _147
REMARK   63  A    between atoms: _147  and  _148
REMARK   64  A    between atoms: _148  and  _149
REMARK   65  A    between atoms: _158  and  _160
REMARK   66  A    between atoms: _160  and  _161
REMARK   67  A    between atoms: _160  and  _163
REMARK   68  A    between atoms: _163  and  _164
REMARK   69  A    between atoms: _167  and  _169
REMARK   70  A    between atoms: _169  and  _170
REMARK   71  A    between atoms: _169  and  _172
REMARK   72  A    between atoms: _172  and  _173
REMARK   73  A    between atoms: _178  and  _180
REMARK   74  A    between atoms: _180  and  _181
REMARK   75  A    between atoms: _180  and  _183
REMARK   76  A    between atoms: _183  and  _184
REMARK   77  A    between atoms: _184  and  _185
REMARK   78  A    between atoms: _188  and  _190
REMARK   79  A    between atoms: _190  and  _191
REMARK   80  A    between atoms: _190  and  _193
REMARK   81  A    between atoms: _193  and  _194
REMARK   82  A    between atoms: _194  and  _195
REMARK   83  A    between atoms: _195  and  _196
REMARK   84  A    between atoms: _196  and  _197
REMARK   85  A    between atoms: _201  and  _203
REMARK   86  A    between atoms: _203  and  _204
REMARK   87  A    between atoms: _206  and  _208
REMARK   88  A    between atoms: _208  and  _209
REMARK   89  A    between atoms: _208  and  _211
REMARK   90  A    between atoms: _211  and  _212
REMARK   91  A    between atoms: _212  and  _213
REMARK   92  A    between atoms: _213  and  _214
REMARK   93  A    between atoms: _223  and  _225
REMARK   94  A    between atoms: _225  and  _226
REMARK   95  A    between atoms: _225  and  _228
REMARK   96  A    between atoms: _228  and  _229
REMARK   97  A    between atoms: _229  and  _230
REMARK   98  A    between atoms: _235  and  _237
REMARK   99  A    between atoms: _237  and  _238
REMARK  100  A    between atoms: _237  and  _240
REMARK  101  A    between atoms: _240  and  _241
REMARK  102  A    between atoms: _244  and  _246
REMARK  103  A    between atoms: _246  and  _247
REMARK  104  A    between atoms: _246  and  _249
REMARK  105  A    between atoms: _252  and  _254
REMARK  106  A    between atoms: _254  and  _255
REMARK  107  A    between atoms: _254  and  _257
REMARK  108  A    between atoms: _257  and  _258
REMARK  109  A    between atoms: _260  and  _262
REMARK  110  A    between atoms: _262  and  _263
REMARK  111  A    between atoms: _262  and  _265
REMARK  112  A    between atoms: _265  and  _266
REMARK  113  A    between atoms: _268  and  _270
REMARK  114  A    between atoms: _270  and  _271
REMARK  115  A    between atoms: _270  and  _273
REMARK  116  A    between atoms: _273  and  _274
REMARK  117  A    between atoms: _280  and  _282
REMARK  118  A    between atoms: _282  and  _283
REMARK  119  A    between atoms: _282  and  _285
REMARK  120  A    between atoms: _285  and  _286
REMARK  121  A    between atoms: _289  and  _291
REMARK  122  A    between atoms: _291  and  _292
REMARK  123  A    between atoms: _291  and  _294
REMARK  124  A    between atoms: _294  and  _295
REMARK  125  A    between atoms: _298  and  _300
REMARK  126  A    between atoms: _300  and  _301
REMARK  127  A    between atoms: _300  and  _303
REMARK  128  A    between atoms: _303  and  _304
REMARK  129  A    between atoms: _307  and  _309
REMARK  130  A    between atoms: _309  and  _310
REMARK  131  A    between atoms: _309  and  _312
REMARK  132  A    between atoms: _312  and  _313
REMARK  133  A    between atoms: _313  and  _314
REMARK  134  A    between atoms: _316  and  _318
REMARK  135  A    between atoms: _318  and  _319
REMARK  136  A    between atoms: _318  and  _321
REMARK  137  A    between atoms: _323  and  _325
REMARK  138  A    between atoms: _325  and  _326
REMARK  139  A    between atoms: _329  and  _331
REMARK  140  A    between atoms: _331  and  _332
REMARK  141  A    between atoms: _334  and  _336
REMARK  142  A    between atoms: _336  and  _337
REMARK  143  A    between atoms: _336  and  _339
REMARK  144  A    between atoms: _339  and  _340
REMARK  145  A    between atoms: _340  and  _341
REMARK  146  A    between atoms: _344  and  _346
REMARK  147  A    between atoms: _346  and  _347
REMARK  148  A    between atoms: _346  and  _349
REMARK  149  A    between atoms: _349  and  _350
REMARK  150  A    between atoms: _353  and  _355
REMARK  151  A    between atoms: _355  and  _356
REMARK  152  A    between atoms: _359  and  _361
REMARK  153  A    between atoms: _361  and  _362
REMARK  154  A    between atoms: _361  and  _364
REMARK  155  A    between atoms: _364  and  _365
REMARK  156  A    between atoms: _365  and  _468
REMARK  157  A    between atoms: _366  and  _368
REMARK  158  A    between atoms: _368  and  _369
REMARK  159  A    between atoms: _368  and  _371
REMARK  160  A    between atoms: _371  and  _372
REMARK  161  A    between atoms: _372  and  _373
REMARK  162  A    between atoms: _378  and  _380
REMARK  163  A    between atoms: _380  and  _381
REMARK  164  A    between atoms: _383  and  _385
REMARK  165  A    between atoms: _385  and  _386
REMARK  166  A    between atoms: _385  and  _388
REMARK  167  A    between atoms: _388  and  _389
REMARK  168  A    between atoms: _392  and  _394
REMARK  169  A    between atoms: _394  and  _395
REMARK  170  A    between atoms: _394  and  _397
REMARK  171  A    between atoms: _397  and  _398
REMARK  172  A    between atoms: _400  and  _402
REMARK  173  A    between atoms: _402  and  _403
REMARK  174  A    between atoms: _405  and  _407
REMARK  175  A    between atoms: _407  and  _408
REMARK  176  A    between atoms: _410  and  _412
REMARK  177  A    between atoms: _412  and  _413
REMARK  178  A    between atoms: _412  and  _415
REMARK  179  A    between atoms: _418  and  _420
REMARK  180  A    between atoms: _420  and  _421
REMARK  181  A    between atoms: _420  and  _423
REMARK  182  A    between atoms: _423  and  _424
REMARK  183  A    between atoms: _426  and  _428
REMARK  184  A    between atoms: _428  and  _429
REMARK  185  A    between atoms: _428  and  _431
REMARK  186  A    between atoms: _431  and  _432
REMARK  187  A    between atoms: _442  and  _444
REMARK  188  A    between atoms: _444  and  _445
REMARK  189  A    between atoms: _447  and  _449
REMARK  190  A    between atoms: _449  and  _450
REMARK  191  A    between atoms: _449  and  _452
REMARK  192  A    between atoms: _452  and  _453
REMARK  193  A    between atoms: _453  and  _454
REMARK  194  A    between atoms: _457  and  _459
REMARK  195  A    between atoms: _459  and  _460
REMARK  196  A    between atoms: _462  and  _464
REMARK  197  A    between atoms: _464  and  _465
REMARK  198  A    between atoms: _464  and  _467
REMARK  199  A    between atoms: _467  and  _468
REMARK  200  A    between atoms: _469  and  _471
REMARK  201  A    between atoms: _471  and  _472
REMARK  202  A    between atoms: _475  and  _477
REMARK  203  A    between atoms: _477  and  _478
REMARK  204  A    between atoms: _477  and  _480
REMARK  205  A    between atoms: _480  and  _481
REMARK  206  A    between atoms: _481  and  _482
REMARK  207  A    between atoms: _482  and  _483
REMARK  208  A    between atoms: _492  and  _494
REMARK  209  A    between atoms: _494  and  _495
REMARK  210  A    between atoms: _494  and  _497
REMARK  211  A    between atoms: _497  and  _498
REMARK  212  A    between atoms: _498  and  _499
REMARK  213  A    between atoms: _499  and  _500
REMARK  214  A    between atoms: _500  and  _501
REMARK  215  A    between atoms: _505  and  _507
REMARK  216  A    between atoms: _507  and  _508
REMARK  217  A    between atoms: _507  and  _510
REMARK  218  A    between atoms: _510  and  _511
REMARK  219  A    between atoms: _516  and  _517
REMARK  220  A    between atoms: _519  and  _521
REMARK  221  A    between atoms: _521  and  _522
REMARK  222  A    between atoms: _524  and  _526
REMARK  223  A    between atoms: _526  and  _527
REMARK  224  A    between atoms: _526  and  _529
REMARK  225  A    between atoms: _529  and  _530
REMARK  226  A    between atoms: _533  and  _535
REMARK  227  A    between atoms: _535  and  _536
REMARK  228  A    between atoms: _535  and  _538
REMARK  229  A    between atoms: _538  and  _539
REMARK  230  A    between atoms: _544  and  _545
REMARK                            x       y       z     vdW  Elec       q    Type
REMARK                         _______ _______ _______ _____ _____    ______ ____
ROOT
ATOM      1  O   HOH     1      10.097   9.736  20.535  0.00  0.00    +0.000 OA
ENDROOT
TORSDOF 0
REMARK  Name = ../refined-set-2016/1lpg/1lpg_pocket.pdb
REMARK  230 active torsions:
REMARK  status: ('A' for Active; 'I' for Inactive)
REMARK    1  A    between atoms: _1  and  _5
REMARK    2  A    between atoms: _5  and  _6
REMARK    3  A    between atoms: _5  and  _8
REMARK    4  A    between atoms: _8  and  _9
REMARK    5  A    between atoms: _12  and  _14
REMARK    6  A    between atoms: _14  and  _15
REMARK    7  A    between atoms: _14  and  _17
REMARK    8  A    between atoms: _20  and  _22
REMARK    9  A    between atoms: _22  and  _23
REMARK   10  A    between atoms: _22  and  _25
REMARK   11  A    between atoms: _25  and  _26
REMARK   12  A    between atoms: _31  and  _33
REMARK   13  A    between atoms: _33  and  _34
REMARK   14  A    between atoms: _33  and  _36
REMARK   15  A    between atoms: _36  and  _37
REMARK   16  A    between atoms: _37  and  _38
REMARK   17  A    between atoms: _43  and  _45
REMARK   18  A    between atoms: _45  and  _46
REMARK   19  A    between atoms: _45  and  _48
REMARK   20  A    between atoms: _48  and  _49
REMARK   21  A    between atoms: _55  and  _57
REMARK   22  A    between atoms: _57  and  _58
REMARK   23  A    between atoms: _57  and  _60
REMARK   24  A    between atoms: _60  and  _61
REMARK   25  A    between atoms: _64  and  _66
REMARK   26  A    between atoms: _66  and  _67
REMARK   27  A    between atoms: _66  and  _69
REMARK   28  A    between atoms: _69  and  _70
REMARK   29  A    between atoms: _70  and  _71
REMARK   30  A    between atoms: _71  and  _72
REMARK   31  A    between atoms: _72  and  _73
REMARK   32  A    between atoms: _77  and  _79
REMARK   33  A    between atoms: _79  and  _80
REMARK   34  A    between atoms: _79  and  _82
REMARK   35  A    between atoms: _82  and  _83
REMARK   36  A    between atoms: _83  and  _84
REMARK   37  A    between atoms: _87  and  _89
REMARK   38  A    between atoms: _89  and  _90
REMARK   39  A    between atoms: _89  and  _92
REMARK   40  A    between atoms: _92  and  _93
REMARK   41  A    between atoms: _96  and  _98
REMARK   42  A    between atoms: _98  and  _99
REMARK   43  A    between atoms: _98  and  _101
REMARK   44  A    between atoms: _101  and  _102
REMARK   45  A    between atoms: _107  and  _108
REMARK   46  A    between atoms: _110  and  _112
REMARK   47  A    between atoms: _112  and  _113
REMARK   48  A    between atoms: _112  and  _115
REMARK   49  A    between atoms: _115  and  _116
REMARK   50  A    between atoms: _119  and  _121
REMARK   51  A    between atoms: _121  and  _122
REMARK   52  A    between atoms: _121  and  _124
REMARK   53  A    between atoms: _124  and  _125
REMARK   54  A    between atoms: _128  and  _130
REMARK   55  A    between atoms: _130  and  _131
REMARK   56  A    between atoms: _130  and  _133
REMARK   57  A    between atoms: _136  and  _138
REMARK   58  A    between atoms: _138  and  _139
REMARK   59  A    between atoms: _141  and  _143
REMARK   60  A    between atoms: _143  and  _144
REMARK   61  A    between atoms: _143  and  _146
REMARK   62  A    between atoms: _146  and  _147
REMARK   63  A    between atoms: _147  and  _148
REMARK   64  A    between atoms: _148  and  _149
REMARK   65  A    between atoms: _158  and  _160
REMARK   66  A    between atoms: _160  and  _161
REMARK   67  A    between atoms: _160  and  _163
REMARK   68  A    between atoms: _163  and  _164
REMARK   69  A    between atoms: _167  and  _169
REMARK   70  A    between atoms: _169  and  _170
REMARK   71  A    between atoms: _169  and  _172
REMARK   72  A    between atoms: _172  and  _173
REMARK   73  A    between atoms: _178  and  _180
REMARK   74  A    between atoms: _180  and  _181
REMARK   75  A    between atoms: _180  and  _183
REMARK   76  A    between atoms: _183  and  _184
REMARK   77  A    between atoms: _184  and  _185
REMARK   78  A    between atoms: _188  and  _190
REMARK   79  A    between atoms: _190  and  _191
REMARK   80  A    between atoms: _190  and  _193
REMARK   81  A    between atoms: _193  and  _194
REMARK   82  A    between atoms: _194  and  _195
REMARK   83  A    between atoms: _195  and  _196
REMARK   84  A    between atoms: _196  and  _197
REMARK   85  A    between atoms: _201  and  _203
REMARK   86  A    between atoms: _203  and  _204
REMARK   87  A    between atoms: _206  and  _208
REMARK   88  A    between atoms: _208  and  _209
REMARK   89  A    between atoms: _208  and  _211
REMARK   90  A    between atoms: _211  and  _212
REMARK   91  A    between atoms: _212  and  _213
REMARK   92  A    between atoms: _213  and  _214
REMARK   93  A    between atoms: _223  and  _225
REMARK   94  A    between atoms: _225  and  _226
REMARK   95  A    between atoms: _225  and  _228
REMARK   96  A    between atoms: _228  and  _229
REMARK   97  A    between atoms: _229  and  _230
REMARK   98  A    between atoms: _235  and  _237
REMARK   99  A    between atoms: _237  and  _238
REMARK  100  A    between atoms: _237  and  _240
REMARK  101  A    between atoms: _240  and  _241
REMARK  102  A    between atoms: _244  and  _246
REMARK  103  A    between atoms: _246  and  _247
REMARK  104  A    between atoms: _246  and  _249
REMARK  105  A    between atoms: _252  and  _254
REMARK  106  A    between atoms: _254  and  _255
REMARK  107  A    between atoms: _254  and  _257
REMARK  108  A    between atoms: _257  and  _258
REMARK  109  A    between atoms: _260  and  _262
REMARK  110  A    between atoms: _262  and  _263
REMARK  111  A    between atoms: _262  and  _265
REMARK  112  A    between atoms: _265  and  _266
REMARK  113  A    between atoms: _268  and  _270
REMARK  114  A    between atoms: _270  and  _271
REMARK  115  A    between atoms: _270  and  _273
REMARK  116  A    between atoms: _273  and  _274
REMARK  117  A    between atoms: _280  and  _282
REMARK  118  A    between atoms: _282  and  _283
REMARK  119  A    between atoms: _282  and  _285
REMARK  120  A    between atoms: _285  and  _286
REMARK  121  A    between atoms: _289  and  _291
REMARK  122  A    between atoms: _291  and  _292
REMARK  123  A    between atoms: _291  and  _294
REMARK  124  A    between atoms: _294  and  _295
REMARK  125  A    between atoms: _298  and  _300
REMARK  126  A    between atoms: _300  and  _301
REMARK  127  A    between atoms: _300  and  _303
REMARK  128  A    between atoms: _303  and  _304
REMARK  129  A    between atoms: _307  and  _309
REMARK  130  A    between atoms: _309  and  _310
REMARK  131  A    between atoms: _309  and  _312
REMARK  132  A    between atoms: _312  and  _313
REMARK  133  A    between atoms: _313  and  _314
REMARK  134  A    between atoms: _316  and  _318
REMARK  135  A    between atoms: _318  and  _319
REMARK  136  A    between atoms: _318  and  _321
REMARK  137  A    between atoms: _323  and  _325
REMARK  138  A    between atoms: _325  and  _326
REMARK  139  A    between atoms: _329  and  _331
REMARK  140  A    between atoms: _331  and  _332
REMARK  141  A    between atoms: _334  and  _336
REMARK  142  A    between atoms: _336  and  _337
REMARK  143  A    between atoms: _336  and  _339
REMARK  144  A    between atoms: _339  and  _340
REMARK  145  A    between atoms: _340  and  _341
REMARK  146  A    between atoms: _344  and  _346
REMARK  147  A    between atoms: _346  and  _347
REMARK  148  A    between atoms: _346  and  _349
REMARK  149  A    between atoms: _349  and  _350
REMARK  150  A    between atoms: _353  and  _355
REMARK  151  A    between atoms: _355  and  _356
REMARK  152  A    between atoms: _359  and  _361
REMARK  153  A    between atoms: _361  and  _362
REMARK  154  A    between atoms: _361  and  _364
REMARK  155  A    between atoms: _364  and  _365
REMARK  156  A    between atoms: _365  and  _468
REMARK  157  A    between atoms: _366  and  _368
REMARK  158  A    between atoms: _368  and  _369
REMARK  159  A    between atoms: _368  and  _371
REMARK  160  A    between atoms: _371  and  _372
REMARK  161  A    between atoms: _372  and  _373
REMARK  162  A    between atoms: _378  and  _380
REMARK  163  A    between atoms: _380  and  _381
REMARK  164  A    between atoms: _383  and  _385
REMARK  165  A    between atoms: _385  and  _386
REMARK  166  A    between atoms: _385  and  _388
REMARK  167  A    between atoms: _388  and  _389
REMARK  168  A    between atoms: _392  and  _394
REMARK  169  A    between atoms: _394  and  _395
REMARK  170  A    between atoms: _394  and  _397
REMARK  171  A    between atoms: _397  and  _398
REMARK  172  A    between atoms: _400  and  _402
REMARK  173  A    between atoms: _402  and  _403
REMARK  174  A    between atoms: _405  and  _407
REMARK  175  A    between atoms: _407  and  _408
REMARK  176  A    between atoms: _410  and  _412
REMARK  177  A    between atoms: _412  and  _413
REMARK  178  A    between atoms: _412  and  _415
REMARK  179  A    between atoms: _418  and  _420
REMARK  180  A    between atoms: _420  and  _421
REMARK  181  A    between atoms: _420  and  _423
REMARK  182  A    between atoms: _423  and  _424
REMARK  183  A    between atoms: _426  and  _428
REMARK  184  A    between atoms: _428  and  _429
REMARK  185  A    between atoms: _428  and  _431
REMARK  186  A    between atoms: _431  and  _432
REMARK  187  A    between atoms: _442  and  _444
REMARK  188  A    between atoms: _444  and  _445
REMARK  189  A    between atoms: _447  and  _449
REMARK  190  A    between atoms: _449  and  _450
REMARK  191  A    between atoms: _449  and  _452
REMARK  192  A    between atoms: _452  and  _453
REMARK  193  A    between atoms: _453  and  _454
REMARK  194  A    between atoms: _457  and  _459
REMARK  195  A    between atoms: _459  and  _460
REMARK  196  A    between atoms: _462  and  _464
REMARK  197  A    between atoms: _464  and  _465
REMARK  198  A    between atoms: _464  and  _467
REMARK  199  A    between atoms: _467  and  _468
REMARK  200  A    between atoms: _469  and  _471
REMARK  201  A    between atoms: _471  and  _472
REMARK  202  A    between atoms: _475  and  _477
REMARK  203  A    between atoms: _477  and  _478
REMARK  204  A    between atoms: _477  and  _480
REMARK  205  A    between atoms: _480  and  _481
REMARK  206  A    between atoms: _481  and  _482
REMARK  207  A    between atoms: _482  and  _483
REMARK  208  A    between atoms: _492  and  _494
REMARK  209  A    between atoms: _494  and  _495
REMARK  210  A    between atoms: _494  and  _497
REMARK  211  A    between atoms: _497  and  _498
REMARK  212  A    between atoms: _498  and  _499
REMARK  213  A    between atoms: _499  and  _500
REMARK  214  A    between atoms: _500  and  _501
REMARK  215  A    between atoms: _505  and  _507
REMARK  216  A    between atoms: _507  and  _508
REMARK  217  A    between atoms: _507  and  _510
REMARK  218  A    between atoms: _510  and  _511
REMARK  219  A    between atoms: _516  and  _517
REMARK  220  A    between atoms: _519  and  _521
REMARK  221  A    between atoms: _521  and  _522
REMARK  222  A    between atoms: _524  and  _526
REMARK  223  A    between atoms: _526  and  _527
REMARK  224  A    between atoms: _526  and  _529
REMARK  225  A    between atoms: _529  and  _530
REMARK  226  A    between atoms: _533  and  _535
REMARK  227  A    between atoms: _535  and  _536
REMARK  228  A    between atoms: _535  and  _538
REMARK  229  A    between atoms: _538  and  _539
REMARK  230  A    between atoms: _544  and  _545
REMARK                            x       y       z     vdW  Elec       q    Type
REMARK                         _______ _______ _______ _____ _____    ______ ____
ROOT
ATOM      1  O   HOH     1       9.483  -5.202  16.837  0.00  0.00    +0.000 OA
ENDROOT
TORSDOF 0
REMARK  Name = ../refined-set-2016/1lpg/1lpg_pocket.pdb
REMARK  230 active torsions:
REMARK  status: ('A' for Active; 'I' for Inactive)
REMARK    1  A    between atoms: _1  and  _5
REMARK    2  A    between atoms: _5  and  _6
REMARK    3  A    between atoms: _5  and  _8
REMARK    4  A    between atoms: _8  and  _9
REMARK    5  A    between atoms: _12  and  _14
REMARK    6  A    between atoms: _14  and  _15
REMARK    7  A    between atoms: _14  and  _17
REMARK    8  A    between atoms: _20  and  _22
REMARK    9  A    between atoms: _22  and  _23
REMARK   10  A    between atoms: _22  and  _25
REMARK   11  A    between atoms: _25  and  _26
REMARK   12  A    between atoms: _31  and  _33
REMARK   13  A    between atoms: _33  and  _34
REMARK   14  A    between atoms: _33  and  _36
REMARK   15  A    between atoms: _36  and  _37
REMARK   16  A    between atoms: _37  and  _38
REMARK   17  A    between atoms: _43  and  _45
REMARK   18  A    between atoms: _45  and  _46
REMARK   19  A    between atoms: _45  and  _48
REMARK   20  A    between atoms: _48  and  _49
REMARK   21  A    between atoms: _55  and  _57
REMARK   22  A    between atoms: _57  and  _58
REMARK   23  A    between atoms: _57  and  _60
REMARK   24  A    between atoms: _60  and  _61
REMARK   25  A    between atoms: _64  and  _66
REMARK   26  A    between atoms: _66  and  _67
REMARK   27  A    between atoms: _66  and  _69
REMARK   28  A    between atoms: _69  and  _70
REMARK   29  A    between atoms: _70  and  _71
REMARK   30  A    between atoms: _71  and  _72
REMARK   31  A    between atoms: _72  and  _73
REMARK   32  A    between atoms: _77  and  _79
REMARK   33  A    between atoms: _79  and  _80
REMARK   34  A    between atoms: _79  and  _82
REMARK   35  A    between atoms: _82  and  _83
REMARK   36  A    between atoms: _83  and  _84
REMARK   37  A    between atoms: _87  and  _89
REMARK   38  A    between atoms: _89  and  _90
REMARK   39  A    between atoms: _89  and  _92
REMARK   40  A    between atoms: _92  and  _93
REMARK   41  A    between atoms: _96  and  _98
REMARK   42  A    between atoms: _98  and  _99
REMARK   43  A    between atoms: _98  and  _101
REMARK   44  A    between atoms: _101  and  _102
REMARK   45  A    between atoms: _107  and  _108
REMARK   46  A    between atoms: _110  and  _112
REMARK   47  A    between atoms: _112  and  _113
REMARK   48  A    between atoms: _112  and  _115
REMARK   49  A    between atoms: _115  and  _116
REMARK   50  A    between atoms: _119  and  _121
REMARK   51  A    between atoms: _121  and  _122
REMARK   52  A    between atoms: _121  and  _124
REMARK   53  A    between atoms: _124  and  _125
REMARK   54  A    between atoms: _128  and  _130
REMARK   55  A    between atoms: _130  and  _131
REMARK   56  A    between atoms: _130  and  _133
REMARK   57  A    between atoms: _136  and  _138
REMARK   58  A    between atoms: _138  and  _139
REMARK   59  A    between atoms: _141  and  _143
REMARK   60  A    between atoms: _143  and  _144
REMARK   61  A    between atoms: _143  and  _146
REMARK   62  A    between atoms: _146  and  _147
REMARK   63  A    between atoms: _147  and  _148
REMARK   64  A    between atoms: _148  and  _149
REMARK   65  A    between atoms: _158  and  _160
REMARK   66  A    between atoms: _160  and  _161
REMARK   67  A    between atoms: _160  and  _163
REMARK   68  A    between atoms: _163  and  _164
REMARK   69  A    between atoms: _167  and  _169
REMARK   70  A    between atoms: _169  and  _170
REMARK   71  A    between atoms: _169  and  _172
REMARK   72  A    between atoms: _172  and  _173
REMARK   73  A    between atoms: _178  and  _180
REMARK   74  A    between atoms: _180  and  _181
REMARK   75  A    between atoms: _180  and  _183
REMARK   76  A    between atoms: _183  and  _184
REMARK   77  A    between atoms: _184  and  _185
REMARK   78  A    between atoms: _188  and  _190
REMARK   79  A    between atoms: _190  and  _191
REMARK   80  A    between atoms: _190  and  _193
REMARK   81  A    between atoms: _193  and  _194
REMARK   82  A    between atoms: _194  and  _195
REMARK   83  A    between atoms: _195  and  _196
REMARK   84  A    between atoms: _196  and  _197
REMARK   85  A    between atoms: _201  and  _203
REMARK   86  A    between atoms: _203  and  _204
REMARK   87  A    between atoms: _206  and  _208
REMARK   88  A    between atoms: _208  and  _209
REMARK   89  A    between atoms: _208  and  _211
REMARK   90  A    between atoms: _211  and  _212
REMARK   91  A    between atoms: _212  and  _213
REMARK   92  A    between atoms: _213  and  _214
REMARK   93  A    between atoms: _223  and  _225
REMARK   94  A    between atoms: _225  and  _226
REMARK   95  A    between atoms: _225  and  _228
REMARK   96  A    between atoms: _228  and  _229
REMARK   97  A    between atoms: _229  and  _230
REMARK   98  A    between atoms: _235  and  _237
REMARK   99  A    between atoms: _237  and  _238
REMARK  100  A    between atoms: _237  and  _240
REMARK  101  A    between atoms: _240  and  _241
REMARK  102  A    between atoms: _244  and  _246
REMARK  103  A    between atoms: _246  and  _247
REMARK  104  A    between atoms: _246  and  _249
REMARK  105  A    between atoms: _252  and  _254
REMARK  106  A    between atoms: _254  and  _255
REMARK  107  A    between atoms: _254  and  _257
REMARK  108  A    between atoms: _257  and  _258
REMARK  109  A    between atoms: _260  and  _262
REMARK  110  A    between atoms: _262  and  _263
REMARK  111  A    between atoms: _262  and  _265
REMARK  112  A    between atoms: _265  and  _266
REMARK  113  A    between atoms: _268  and  _270
REMARK  114  A    between atoms: _270  and  _271
REMARK  115  A    between atoms: _270  and  _273
REMARK  116  A    between atoms: _273  and  _274
REMARK  117  A    between atoms: _280  and  _282
REMARK  118  A    between atoms: _282  and  _283
REMARK  119  A    between atoms: _282  and  _285
REMARK  120  A    between atoms: _285  and  _286
REMARK  121  A    between atoms: _289  and  _291
REMARK  122  A    between atoms: _291  and  _292
REMARK  123  A    between atoms: _291  and  _294
REMARK  124  A    between atoms: _294  and  _295
REMARK  125  A    between atoms: _298  and  _300
REMARK  126  A    between atoms: _300  and  _301
REMARK  127  A    between atoms: _300  and  _303
REMARK  128  A    between atoms: _303  and  _304
REMARK  129  A    between atoms: _307  and  _309
REMARK  130  A    between atoms: _309  and  _310
REMARK  131  A    between atoms: _309  and  _312
REMARK  132  A    between atoms: _312  and  _313
REMARK  133  A    between atoms: _313  and  _314
REMARK  134  A    between atoms: _316  and  _318
REMARK  135  A    between atoms: _318  and  _319
REMARK  136  A    between atoms: _318  and  _321
REMARK  137  A    between atoms: _323  and  _325
REMARK  138  A    between atoms: _325  and  _326
REMARK  139  A    between atoms: _329  and  _331
REMARK  140  A    between atoms: _331  and  _332
REMARK  141  A    between atoms: _334  and  _336
REMARK  142  A    between atoms: _336  and  _337
REMARK  143  A    between atoms: _336  and  _339
REMARK  144  A    between atoms: _339  and  _340
REMARK  145  A    between atoms: _340  and  _341
REMARK  146  A    between atoms: _344  and  _346
REMARK  147  A    between atoms: _346  and  _347
REMARK  148  A    between atoms: _346  and  _349
REMARK  149  A    between atoms: _349  and  _350
REMARK  150  A    between atoms: _353  and  _355
REMARK  151  A    between atoms: _355  and  _356
REMARK  152  A    between atoms: _359  and  _361
REMARK  153  A    between atoms: _361  and  _362
REMARK  154  A    between atoms: _361  and  _364
REMARK  155  A    between atoms: _364  and  _365
REMARK  156  A    between atoms: _365  and  _468
REMARK  157  A    between atoms: _366  and  _368
REMARK  158  A    between atoms: _368  and  _369
REMARK  159  A    between atoms: _368  and  _371
REMARK  160  A    between atoms: _371  and  _372
REMARK  161  A    between atoms: _372  and  _373
REMARK  162  A    between atoms: _378  and  _380
REMARK  163  A    between atoms: _380  and  _381
REMARK  164  A    between atoms: _383  and  _385
REMARK  165  A    between atoms: _385  and  _386
REMARK  166  A    between atoms: _385  and  _388
REMARK  167  A    between atoms: _388  and  _389
REMARK  168  A    between atoms: _392  and  _394
REMARK  169  A    between atoms: _394  and  _395
REMARK  170  A    between atoms: _394  and  _397
REMARK  171  A    between atoms: _397  and  _398
REMARK  172  A    between atoms: _400  and  _402
REMARK  173  A    between atoms: _402  and  _403
REMARK  174  A    between atoms: _405  and  _407
REMARK  175  A    between atoms: _407  and  _408
REMARK  176  A    between atoms: _410  and  _412
REMARK  177  A    between atoms: _412  and  _413
REMARK  178  A    between atoms: _412  and  _415
REMARK  179  A    between atoms: _418  and  _420
REMARK  180  A    between atoms: _420  and  _421
REMARK  181  A    between atoms: _420  and  _423
REMARK  182  A    between atoms: _423  and  _424
REMARK  183  A    between atoms: _426  and  _428
REMARK  184  A    between atoms: _428  and  _429
REMARK  185  A    between atoms: _428  and  _431
REMARK  186  A    between atoms: _431  and  _432
REMARK  187  A    between atoms: _442  and  _444
REMARK  188  A    between atoms: _444  and  _445
REMARK  189  A    between atoms: _447  and  _449
REMARK  190  A    between atoms: _449  and  _450
REMARK  191  A    between atoms: _449  and  _452
REMARK  192  A    between atoms: _452  and  _453
REMARK  193  A    between atoms: _453  and  _454
REMARK  194  A    between atoms: _457  and  _459
REMARK  195  A    between atoms: _459  and  _460
REMARK  196  A    between atoms: _462  and  _464
REMARK  197  A    between atoms: _464  and  _465
REMARK  198  A    between atoms: _464  and  _467
REMARK  199  A    between atoms: _467  and  _468
REMARK  200  A    between atoms: _469  and  _471
REMARK  201  A    between atoms: _471  and  _472
REMARK  202  A    between atoms: _475  and  _477
REMARK  203  A    between atoms: _477  and  _478
REMARK  204  A    between atoms: _477  and  _480
REMARK  205  A    between atoms: _480  and  _481
REMARK  206  A    between atoms: _481  and  _482
REMARK  207  A    between atoms: _482  and  _483
REMARK  208  A    between atoms: _492  and  _494
REMARK  209  A    between atoms: _494  and  _495
REMARK  210  A    between atoms: _494  and  _497
REMARK  211  A    between atoms: _497  and  _498
REMARK  212  A    between atoms: _498  and  _499
REMARK  213  A    between atoms: _499  and  _500
REMARK  214  A    between atoms: _500  and  _501
REMARK  215  A    between atoms: _505  and  _507
REMARK  216  A    between atoms: _507  and  _508
REMARK  217  A    between atoms: _507  and  _510
REMARK  218  A    between atoms: _510  and  _511
REMARK  219  A    between atoms: _516  and  _517
REMARK  220  A    between atoms: _519  and  _521
REMARK  221  A    between atoms: _521  and  _522
REMARK  222  A    between atoms: _524  and  _526
REMARK  223  A    between atoms: _526  and  _527
REMARK  224  A    between atoms: _526  and  _529
REMARK  225  A    between atoms: _529  and  _530
REMARK  226  A    between atoms: _533  and  _535
REMARK  227  A    between atoms: _535  and  _536
REMARK  228  A    between atoms: _535  and  _538
REMARK  229  A    between atoms: _538  and  _539
REMARK  230  A    between atoms: _544  and  _545
REMARK                            x       y       z     vdW  Elec       q    Type
REMARK                         _______ _______ _______ _____ _____    ______ ____
ROOT
ATOM      1  O   HOH     1      -5.633   9.631  26.814  0.00  0.00    +0.000 OA
ENDROOT
TORSDOF 0
REMARK  Name = ../refined-set-2016/1lpg/1lpg_pocket.pdb
REMARK  230 active torsions:
REMARK  status: ('A' for Active; 'I' for Inactive)
REMARK    1  A    between atoms: _1  and  _5
REMARK    2  A    between atoms: _5  and  _6
REMARK    3  A    between atoms: _5  and  _8
REMARK    4  A    between atoms: _8  and  _9
REMARK    5  A    between atoms: _12  and  _14
REMARK    6  A    between atoms: _14  and  _15
REMARK    7  A    between atoms: _14  and  _17
REMARK    8  A    between atoms: _20  and  _22
REMARK    9  A    between atoms: _22  and  _23
REMARK   10  A    between atoms: _22  and  _25
REMARK   11  A    between atoms: _25  and  _26
REMARK   12  A    between atoms: _31  and  _33
REMARK   13  A    between atoms: _33  and  _34
REMARK   14  A    between atoms: _33  and  _36
REMARK   15  A    between atoms: _36  and  _37
REMARK   16  A    between atoms: _37  and  _38
REMARK   17  A    between atoms: _43  and  _45
REMARK   18  A    between atoms: _45  and  _46
REMARK   19  A    between atoms: _45  and  _48
REMARK   20  A    between atoms: _48  and  _49
REMARK   21  A    between atoms: _55  and  _57
REMARK   22  A    between atoms: _57  and  _58
REMARK   23  A    between atoms: _57  and  _60
REMARK   24  A    between atoms: _60  and  _61
REMARK   25  A    between atoms: _64  and  _66
REMARK   26  A    between atoms: _66  and  _67
REMARK   27  A    between atoms: _66  and  _69
REMARK   28  A    between atoms: _69  and  _70
REMARK   29  A    between atoms: _70  and  _71
REMARK   30  A    between atoms: _71  and  _72
REMARK   31  A    between atoms: _72  and  _73
REMARK   32  A    between atoms: _77  and  _79
REMARK   33  A    between atoms: _79  and  _80
REMARK   34  A    between atoms: _79  and  _82
REMARK   35  A    between atoms: _82  and  _83
REMARK   36  A    between atoms: _83  and  _84
REMARK   37  A    between atoms: _87  and  _89
REMARK   38  A    between atoms: _89  and  _90
REMARK   39  A    between atoms: _89  and  _92
REMARK   40  A    between atoms: _92  and  _93
REMARK   41  A    between atoms: _96  and  _98
REMARK   42  A    between atoms: _98  and  _99
REMARK   43  A    between atoms: _98  and  _101
REMARK   44  A    between atoms: _101  and  _102
REMARK   45  A    between atoms: _107  and  _108
REMARK   46  A    between atoms: _110  and  _112
REMARK   47  A    between atoms: _112  and  _113
REMARK   48  A    between atoms: _112  and  _115
REMARK   49  A    between atoms: _115  and  _116
REMARK   50  A    between atoms: _119  and  _121
REMARK   51  A    between atoms: _121  and  _122
REMARK   52  A    between atoms: _121  and  _124
REMARK   53  A    between atoms: _124  and  _125
REMARK   54  A    between atoms: _128  and  _130
REMARK   55  A    between atoms: _130  and  _131
REMARK   56  A    between atoms: _130  and  _133
REMARK   57  A    between atoms: _136  and  _138
REMARK   58  A    between atoms: _138  and  _139
REMARK   59  A    between atoms: _141  and  _143
REMARK   60  A    between atoms: _143  and  _144
REMARK   61  A    between atoms: _143  and  _146
REMARK   62  A    between atoms: _146  and  _147
REMARK   63  A    between atoms: _147  and  _148
REMARK   64  A    between atoms: _148  and  _149
REMARK   65  A    between atoms: _158  and  _160
REMARK   66  A    between atoms: _160  and  _161
REMARK   67  A    between atoms: _160  and  _163
REMARK   68  A    between atoms: _163  and  _164
REMARK   69  A    between atoms: _167  and  _169
REMARK   70  A    between atoms: _169  and  _170
REMARK   71  A    between atoms: _169  and  _172
REMARK   72  A    between atoms: _172  and  _173
REMARK   73  A    between atoms: _178  and  _180
REMARK   74  A    between atoms: _180  and  _181
REMARK   75  A    between atoms: _180  and  _183
REMARK   76  A    between atoms: _183  and  _184
REMARK   77  A    between atoms: _184  and  _185
REMARK   78  A    between atoms: _188  and  _190
REMARK   79  A    between atoms: _190  and  _191
REMARK   80  A    between atoms: _190  and  _193
REMARK   81  A    between atoms: _193  and  _194
REMARK   82  A    between atoms: _194  and  _195
REMARK   83  A    between atoms: _195  and  _196
REMARK   84  A    between atoms: _196  and  _197
REMARK   85  A    between atoms: _201  and  _203
REMARK   86  A    between atoms: _203  and  _204
REMARK   87  A    between atoms: _206  and  _208
REMARK   88  A    between atoms: _208  and  _209
REMARK   89  A    between atoms: _208  and  _211
REMARK   90  A    between atoms: _211  and  _212
REMARK   91  A    between atoms: _212  and  _213
REMARK   92  A    between atoms: _213  and  _214
REMARK   93  A    between atoms: _223  and  _225
REMARK   94  A    between atoms: _225  and  _226
REMARK   95  A    between atoms: _225  and  _228
REMARK   96  A    between atoms: _228  and  _229
REMARK   97  A    between atoms: _229  and  _230
REMARK   98  A    between atoms: _235  and  _237
REMARK   99  A    between atoms: _237  and  _238
REMARK  100  A    between atoms: _237  and  _240
REMARK  101  A    between atoms: _240  and  _241
REMARK  102  A    between atoms: _244  and  _246
REMARK  103  A    between atoms: _246  and  _247
REMARK  104  A    between atoms: _246  and  _249
REMARK  105  A    between atoms: _252  and  _254
REMARK  106  A    between atoms: _254  and  _255
REMARK  107  A    between atoms: _254  and  _257
REMARK  108  A    between atoms: _257  and  _258
REMARK  109  A    between atoms: _260  and  _262
REMARK  110  A    between atoms: _262  and  _263
REMARK  111  A    between atoms: _262  and  _265
REMARK  112  A    between atoms: _265  and  _266
REMARK  113  A    between atoms: _268  and  _270
REMARK  114  A    between atoms: _270  and  _271
REMARK  115  A    between atoms: _270  and  _273
REMARK  116  A    between atoms: _273  and  _274
REMARK  117  A    between atoms: _280  and  _282
REMARK  118  A    between atoms: _282  and  _283
REMARK  119  A    between atoms: _282  and  _285
REMARK  120  A    between atoms: _285  and  _286
REMARK  121  A    between atoms: _289  and  _291
REMARK  122  A    between atoms: _291  and  _292
REMARK  123  A    between atoms: _291  and  _294
REMARK  124  A    between atoms: _294  and  _295
REMARK  125  A    between atoms: _298  and  _300
REMARK  126  A    between atoms: _300  and  _301
REMARK  127  A    between atoms: _300  and  _303
REMARK  128  A    between atoms: _303  and  _304
REMARK  129  A    between atoms: _307  and  _309
REMARK  130  A    between atoms: _309  and  _310
REMARK  131  A    between atoms: _309  and  _312
REMARK  132  A    between atoms: _312  and  _313
REMARK  133  A    between atoms: _313  and  _314
REMARK  134  A    between atoms: _316  and  _318
REMARK  135  A    between atoms: _318  and  _319
REMARK  136  A    between atoms: _318  and  _321
REMARK  137  A    between atoms: _323  and  _325
REMARK  138  A    between atoms: _325  and  _326
REMARK  139  A    between atoms: _329  and  _331
REMARK  140  A    between atoms: _331  and  _332
REMARK  141  A    between atoms: _334  and  _336
REMARK  142  A    between atoms: _336  and  _337
REMARK  143  A    between atoms: _336  and  _339
REMARK  144  A    between atoms: _339  and  _340
REMARK  145  A    between atoms: _340  and  _341
REMARK  146  A    between atoms: _344  and  _346
REMARK  147  A    between atoms: _346  and  _347
REMARK  148  A    between atoms: _346  and  _349
REMARK  149  A    between atoms: _349  and  _350
REMARK  150  A    between atoms: _353  and  _355
REMARK  151  A    between atoms: _355  and  _356
REMARK  152  A    between atoms: _359  and  _361
REMARK  153  A    between atoms: _361  and  _362
REMARK  154  A    between atoms: _361  and  _364
REMARK  155  A    between atoms: _364  and  _365
REMARK  156  A    between atoms: _365  and  _468
REMARK  157  A    between atoms: _366  and  _368
REMARK  158  A    between atoms: _368  and  _369
REMARK  159  A    between atoms: _368  and  _371
REMARK  160  A    between atoms: _371  and  _372
REMARK  161  A    between atoms: _372  and  _373
REMARK  162  A    between atoms: _378  and  _380
REMARK  163  A    between atoms: _380  and  _381
REMARK  164  A    between atoms: _383  and  _385
REMARK  165  A    between atoms: _385  and  _386
REMARK  166  A    between atoms: _385  and  _388
REMARK  167  A    between atoms: _388  and  _389
REMARK  168  A    between atoms: _392  and  _394
REMARK  169  A    between atoms: _394  and  _395
REMARK  170  A    between atoms: _394  and  _397
REMARK  171  A    between atoms: _397  and  _398
REMARK  172  A    between atoms: _400  and  _402
REMARK  173  A    between atoms: _402  and  _403
REMARK  174  A    between atoms: _405  and  _407
REMARK  175  A    between atoms: _407  and  _408
REMARK  176  A    between atoms: _410  and  _412
REMARK  177  A    between atoms: _412  and  _413
REMARK  178  A    between atoms: _412  and  _415
REMARK  179  A    between atoms: _418  and  _420
REMARK  180  A    between atoms: _420  and  _421
REMARK  181  A    between atoms: _420  and  _423
REMARK  182  A    between atoms: _423  and  _424
REMARK  183  A    between atoms: _426  and  _428
REMARK  184  A    between atoms: _428  and  _429
REMARK  185  A    between atoms: _428  and  _431
REMARK  186  A    between atoms: _431  and  _432
REMARK  187  A    between atoms: _442  and  _444
REMARK  188  A    between atoms: _444  and  _445
REMARK  189  A    between atoms: _447  and  _449
REMARK  190  A    between atoms: _449  and  _450
REMARK  191  A    between atoms: _449  and  _452
REMARK  192  A    between atoms: _452  and  _453
REMARK  193  A    between atoms: _453  and  _454
REMARK  194  A    between atoms: _457  and  _459
REMARK  195  A    between atoms: _459  and  _460
REMARK  196  A    between atoms: _462  and  _464
REMARK  197  A    between atoms: _464  and  _465
REMARK  198  A    between atoms: _464  and  _467
REMARK  199  A    between atoms: _467  and  _468
REMARK  200  A    between atoms: _469  and  _471
REMARK  201  A    between atoms: _471  and  _472
REMARK  202  A    between atoms: _475  and  _477
REMARK  203  A    between atoms: _477  and  _478
REMARK  204  A    between atoms: _477  and  _480
REMARK  205  A    between atoms: _480  and  _481
REMARK  206  A    between atoms: _481  and  _482
REMARK  207  A    between atoms: _482  and  _483
REMARK  208  A    between atoms: _492  and  _494
REMARK  209  A    between atoms: _494  and  _495
REMARK  210  A    between atoms: _494  and  _497
REMARK  211  A    between atoms: _497  and  _498
REMARK  212  A    between atoms: _498  and  _499
REMARK  213  A    between atoms: _499  and  _500
REMARK  214  A    between atoms: _500  and  _501
REMARK  215  A    between atoms: _505  and  _507
REMARK  216  A    between atoms: _507  and  _508
REMARK  217  A    between atoms: _507  and  _510
REMARK  218  A    between atoms: _510  and  _511
REMARK  219  A    between atoms: _516  and  _517
REMARK  220  A    between atoms: _519  and  _521
REMARK  221  A    between atoms: _521  and  _522
REMARK  222  A    between atoms: _524  and  _526
REMARK  223  A    between atoms: _526  and  _527
REMARK  224  A    between atoms: _526  and  _529
REMARK  225  A    between atoms: _529  and  _530
REMARK  226  A    between atoms: _533  and  _535
REMARK  227  A    between atoms: _535  and  _536
REMARK  228  A    between atoms: _535  and  _538
REMARK  229  A    between atoms: _538  and  _539
REMARK  230  A    between atoms: _544  and  _545
REMARK                            x       y       z     vdW  Elec       q    Type
REMARK                         _______ _______ _______ _____ _____    ______ ____
ROOT
ATOM      1  O   HOH     1       9.487  -1.755  16.183  0.00  0.00    +0.000 OA
ENDROOT
TORSDOF 0
REMARK  Name = ../refined-set-2016/1lpg/1lpg_pocket.pdb
REMARK  230 active torsions:
REMARK  status: ('A' for Active; 'I' for Inactive)
REMARK    1  A    between atoms: _1  and  _5
REMARK    2  A    between atoms: _5  and  _6
REMARK    3  A    between atoms: _5  and  _8
REMARK    4  A    between atoms: _8  and  _9
REMARK    5  A    between atoms: _12  and  _14
REMARK    6  A    between atoms: _14  and  _15
REMARK    7  A    between atoms: _14  and  _17
REMARK    8  A    between atoms: _20  and  _22
REMARK    9  A    between atoms: _22  and  _23
REMARK   10  A    between atoms: _22  and  _25
REMARK   11  A    between atoms: _25  and  _26
REMARK   12  A    between atoms: _31  and  _33
REMARK   13  A    between atoms: _33  and  _34
REMARK   14  A    between atoms: _33  and  _36
REMARK   15  A    between atoms: _36  and  _37
REMARK   16  A    between atoms: _37  and  _38
REMARK   17  A    between atoms: _43  and  _45
REMARK   18  A    between atoms: _45  and  _46
REMARK   19  A    between atoms: _45  and  _48
REMARK   20  A    between atoms: _48  and  _49
REMARK   21  A    between atoms: _55  and  _57
REMARK   22  A    between atoms: _57  and  _58
REMARK   23  A    between atoms: _57  and  _60
REMARK   24  A    between atoms: _60  and  _61
REMARK   25  A    between atoms: _64  and  _66
REMARK   26  A    between atoms: _66  and  _67
REMARK   27  A    between atoms: _66  and  _69
REMARK   28  A    between atoms: _69  and  _70
REMARK   29  A    between atoms: _70  and  _71
REMARK   30  A    between atoms: _71  and  _72
REMARK   31  A    between atoms: _72  and  _73
REMARK   32  A    between atoms: _77  and  _79
REMARK   33  A    between atoms: _79  and  _80
REMARK   34  A    between atoms: _79  and  _82
REMARK   35  A    between atoms: _82  and  _83
REMARK   36  A    between atoms: _83  and  _84
REMARK   37  A    between atoms: _87  and  _89
REMARK   38  A    between atoms: _89  and  _90
REMARK   39  A    between atoms: _89  and  _92
REMARK   40  A    between atoms: _92  and  _93
REMARK   41  A    between atoms: _96  and  _98
REMARK   42  A    between atoms: _98  and  _99
REMARK   43  A    between atoms: _98  and  _101
REMARK   44  A    between atoms: _101  and  _102
REMARK   45  A    between atoms: _107  and  _108
REMARK   46  A    between atoms: _110  and  _112
REMARK   47  A    between atoms: _112  and  _113
REMARK   48  A    between atoms: _112  and  _115
REMARK   49  A    between atoms: _115  and  _116
REMARK   50  A    between atoms: _119  and  _121
REMARK   51  A    between atoms: _121  and  _122
REMARK   52  A    between atoms: _121  and  _124
REMARK   53  A    between atoms: _124  and  _125
REMARK   54  A    between atoms: _128  and  _130
REMARK   55  A    between atoms: _130  and  _131
REMARK   56  A    between atoms: _130  and  _133
REMARK   57  A    between atoms: _136  and  _138
REMARK   58  A    between atoms: _138  and  _139
REMARK   59  A    between atoms: _141  and  _143
REMARK   60  A    between atoms: _143  and  _144
REMARK   61  A    between atoms: _143  and  _146
REMARK   62  A    between atoms: _146  and  _147
REMARK   63  A    between atoms: _147  and  _148
REMARK   64  A    between atoms: _148  and  _149
REMARK   65  A    between atoms: _158  and  _160
REMARK   66  A    between atoms: _160  and  _161
REMARK   67  A    between atoms: _160  and  _163
REMARK   68  A    between atoms: _163  and  _164
REMARK   69  A    between atoms: _167  and  _169
REMARK   70  A    between atoms: _169  and  _170
REMARK   71  A    between atoms: _169  and  _172
REMARK   72  A    between atoms: _172  and  _173
REMARK   73  A    between atoms: _178  and  _180
REMARK   74  A    between atoms: _180  and  _181
REMARK   75  A    between atoms: _180  and  _183
REMARK   76  A    between atoms: _183  and  _184
REMARK   77  A    between atoms: _184  and  _185
REMARK   78  A    between atoms: _188  and  _190
REMARK   79  A    between atoms: _190  and  _191
REMARK   80  A    between atoms: _190  and  _193
REMARK   81  A    between atoms: _193  and  _194
REMARK   82  A    between atoms: _194  and  _195
REMARK   83  A    between atoms: _195  and  _196
REMARK   84  A    between atoms: _196  and  _197
REMARK   85  A    between atoms: _201  and  _203
REMARK   86  A    between atoms: _203  and  _204
REMARK   87  A    between atoms: _206  and  _208
REMARK   88  A    between atoms: _208  and  _209
REMARK   89  A    between atoms: _208  and  _211
REMARK   90  A    between atoms: _211  and  _212
REMARK   91  A    between atoms: _212  and  _213
REMARK   92  A    between atoms: _213  and  _214
REMARK   93  A    between atoms: _223  and  _225
REMARK   94  A    between atoms: _225  and  _226
REMARK   95  A    between atoms: _225  and  _228
REMARK   96  A    between atoms: _228  and  _229
REMARK   97  A    between atoms: _229  and  _230
REMARK   98  A    between atoms: _235  and  _237
REMARK   99  A    between atoms: _237  and  _238
REMARK  100  A    between atoms: _237  and  _240
REMARK  101  A    between atoms: _240  and  _241
REMARK  102  A    between atoms: _244  and  _246
REMARK  103  A    between atoms: _246  and  _247
REMARK  104  A    between atoms: _246  and  _249
REMARK  105  A    between atoms: _252  and  _254
REMARK  106  A    between atoms: _254  and  _255
REMARK  107  A    between atoms: _254  and  _257
REMARK  108  A    between atoms: _257  and  _258
REMARK  109  A    between atoms: _260  and  _262
REMARK  110  A    between atoms: _262  and  _263
REMARK  111  A    between atoms: _262  and  _265
REMARK  112  A    between atoms: _265  and  _266
REMARK  113  A    between atoms: _268  and  _270
REMARK  114  A    between atoms: _270  and  _271
REMARK  115  A    between atoms: _270  and  _273
REMARK  116  A    between atoms: _273  and  _274
REMARK  117  A    between atoms: _280  and  _282
REMARK  118  A    between atoms: _282  and  _283
REMARK  119  A    between atoms: _282  and  _285
REMARK  120  A    between atoms: _285  and  _286
REMARK  121  A    between atoms: _289  and  _291
REMARK  122  A    between atoms: _291  and  _292
REMARK  123  A    between atoms: _291  and  _294
REMARK  124  A    between atoms: _294  and  _295
REMARK  125  A    between atoms: _298  and  _300
REMARK  126  A    between atoms: _300  and  _301
REMARK  127  A    between atoms: _300  and  _303
REMARK  128  A    between atoms: _303  and  _304
REMARK  129  A    between atoms: _307  and  _309
REMARK  130  A    between atoms: _309  and  _310
REMARK  131  A    between atoms: _309  and  _312
REMARK  132  A    between atoms: _312  and  _313
REMARK  133  A    between atoms: _313  and  _314
REMARK  134  A    between atoms: _316  and  _318
REMARK  135  A    between atoms: _318  and  _319
REMARK  136  A    between atoms: _318  and  _321
REMARK  137  A    between atoms: _323  and  _325
REMARK  138  A    between atoms: _325  and  _326
REMARK  139  A    between atoms: _329  and  _331
REMARK  140  A    between atoms: _331  and  _332
REMARK  141  A    between atoms: _334  and  _336
REMARK  142  A    between atoms: _336  and  _337
REMARK  143  A    between atoms: _336  and  _339
REMARK  144  A    between atoms: _339  and  _340
REMARK  145  A    between atoms: _340  and  _341
REMARK  146  A    between atoms: _344  and  _346
REMARK  147  A    between atoms: _346  and  _347
REMARK  148  A    between atoms: _346  and  _349
REMARK  149  A    between atoms: _349  and  _350
REMARK  150  A    between atoms: _353  and  _355
REMARK  151  A    between atoms: _355  and  _356
REMARK  152  A    between atoms: _359  and  _361
REMARK  153  A    between atoms: _361  and  _362
REMARK  154  A    between atoms: _361  and  _364
REMARK  155  A    between atoms: _364  and  _365
REMARK  156  A    between atoms: _365  and  _468
REMARK  157  A    between atoms: _366  and  _368
REMARK  158  A    between atoms: _368  and  _369
REMARK  159  A    between atoms: _368  and  _371
REMARK  160  A    between atoms: _371  and  _372
REMARK  161  A    between atoms: _372  and  _373
REMARK  162  A    between atoms: _378  and  _380
REMARK  163  A    between atoms: _380  and  _381
REMARK  164  A    between atoms: _383  and  _385
REMARK  165  A    between atoms: _385  and  _386
REMARK  166  A    between atoms: _385  and  _388
REMARK  167  A    between atoms: _388  and  _389
REMARK  168  A    between atoms: _392  and  _394
REMARK  169  A    between atoms: _394  and  _395
REMARK  170  A    between atoms: _394  and  _397
REMARK  171  A    between atoms: _397  and  _398
REMARK  172  A    between atoms: _400  and  _402
REMARK  173  A    between atoms: _402  and  _403
REMARK  174  A    between atoms: _405  and  _407
REMARK  175  A    between atoms: _407  and  _408
REMARK  176  A    between atoms: _410  and  _412
REMARK  177  A    between atoms: _412  and  _413
REMARK  178  A    between atoms: _412  and  _415
REMARK  179  A    between atoms: _418  and  _420
REMARK  180  A    between atoms: _420  and  _421
REMARK  181  A    between atoms: _420  and  _423
REMARK  182  A    between atoms: _423  and  _424
REMARK  183  A    between atoms: _426  and  _428
REMARK  184  A    between atoms: _428  and  _429
REMARK  185  A    between atoms: _428  and  _431
REMARK  186  A    between atoms: _431  and  _432
REMARK  187  A    between atoms: _442  and  _444
REMARK  188  A    between atoms: _444  and  _445
REMARK  189  A    between atoms: _447  and  _449
REMARK  190  A    between atoms: _449  and  _450
REMARK  191  A    between atoms: _449  and  _452
REMARK  192  A    between atoms: _452  and  _453
REMARK  193  A    between atoms: _453  and  _454
REMARK  194  A    between atoms: _457  and  _459
REMARK  195  A    between atoms: _459  and  _460
REMARK  196  A    between atoms: _462  and  _464
REMARK  197  A    between atoms: _464  and  _465
REMARK  198  A    between atoms: _464  and  _467
REMARK  199  A    between atoms: _467  and  _468
REMARK  200  A    between atoms: _469  and  _471
REMARK  201  A    between atoms: _471  and  _472
REMARK  202  A    between atoms: _475  and  _477
REMARK  203  A    between atoms: _477  and  _478
REMARK  204  A    between atoms: _477  and  _480
REMARK  205  A    between atoms: _480  and  _481
REMARK  206  A    between atoms: _481  and  _482
REMARK  207  A    between atoms: _482  and  _483
REMARK  208  A    between atoms: _492  and  _494
REMARK  209  A    between atoms: _494  and  _495
REMARK  210  A    between atoms: _494  and  _497
REMARK  211  A    between atoms: _497  and  _498
REMARK  212  A    between atoms: _498  and  _499
REMARK  213  A    between atoms: _499  and  _500
REMARK  214  A    between atoms: _500  and  _501
REMARK  215  A    between atoms: _505  and  _507
REMARK  216  A    between atoms: _507  and  _508
REMARK  217  A    between atoms: _507  and  _510
REMARK  218  A    between atoms: _510  and  _511
REMARK  219  A    between atoms: _516  and  _517
REMARK  220  A    between atoms: _519  and  _521
REMARK  221  A    between atoms: _521  and  _522
REMARK  222  A    between atoms: _524  and  _526
REMARK  223  A    between atoms: _526  and  _527
REMARK  224  A    between atoms: _526  and  _529
REMARK  225  A    between atoms: _529  and  _530
REMARK  226  A    between atoms: _533  and  _535
REMARK  227  A    between atoms: _535  and  _536
REMARK  228  A    between atoms: _535  and  _538
REMARK  229  A    between atoms: _538  and  _539
REMARK  230  A    between atoms: _544  and  _545
REMARK                            x       y       z     vdW  Elec       q    Type
REMARK                         _______ _______ _______ _____ _____    ______ ____
ROOT
ATOM      1  O   HOH     1       3.587  -1.252  23.310  0.00  0.00    +0.000 OA
ENDROOT
TORSDOF 0
REMARK  Name = ../refined-set-2016/1lpg/1lpg_pocket.pdb
REMARK  230 active torsions:
REMARK  status: ('A' for Active; 'I' for Inactive)
REMARK    1  A    between atoms: _1  and  _5
REMARK    2  A    between atoms: _5  and  _6
REMARK    3  A    between atoms: _5  and  _8
REMARK    4  A    between atoms: _8  and  _9
REMARK    5  A    between atoms: _12  and  _14
REMARK    6  A    between atoms: _14  and  _15
REMARK    7  A    between atoms: _14  and  _17
REMARK    8  A    between atoms: _20  and  _22
REMARK    9  A    between atoms: _22  and  _23
REMARK   10  A    between atoms: _22  and  _25
REMARK   11  A    between atoms: _25  and  _26
REMARK   12  A    between atoms: _31  and  _33
REMARK   13  A    between atoms: _33  and  _34
REMARK   14  A    between atoms: _33  and  _36
REMARK   15  A    between atoms: _36  and  _37
REMARK   16  A    between atoms: _37  and  _38
REMARK   17  A    between atoms: _43  and  _45
REMARK   18  A    between atoms: _45  and  _46
REMARK   19  A    between atoms: _45  and  _48
REMARK   20  A    between atoms: _48  and  _49
REMARK   21  A    between atoms: _55  and  _57
REMARK   22  A    between atoms: _57  and  _58
REMARK   23  A    between atoms: _57  and  _60
REMARK   24  A    between atoms: _60  and  _61
REMARK   25  A    between atoms: _64  and  _66
REMARK   26  A    between atoms: _66  and  _67
REMARK   27  A    between atoms: _66  and  _69
REMARK   28  A    between atoms: _69  and  _70
REMARK   29  A    between atoms: _70  and  _71
REMARK   30  A    between atoms: _71  and  _72
REMARK   31  A    between atoms: _72  and  _73
REMARK   32  A    between atoms: _77  and  _79
REMARK   33  A    between atoms: _79  and  _80
REMARK   34  A    between atoms: _79  and  _82
REMARK   35  A    between atoms: _82  and  _83
REMARK   36  A    between atoms: _83  and  _84
REMARK   37  A    between atoms: _87  and  _89
REMARK   38  A    between atoms: _89  and  _90
REMARK   39  A    between atoms: _89  and  _92
REMARK   40  A    between atoms: _92  and  _93
REMARK   41  A    between atoms: _96  and  _98
REMARK   42  A    between atoms: _98  and  _99
REMARK   43  A    between atoms: _98  and  _101
REMARK   44  A    between atoms: _101  and  _102
REMARK   45  A    between atoms: _107  and  _108
REMARK   46  A    between atoms: _110  and  _112
REMARK   47  A    between atoms: _112  and  _113
REMARK   48  A    between atoms: _112  and  _115
REMARK   49  A    between atoms: _115  and  _116
REMARK   50  A    between atoms: _119  and  _121
REMARK   51  A    between atoms: _121  and  _122
REMARK   52  A    between atoms: _121  and  _124
REMARK   53  A    between atoms: _124  and  _125
REMARK   54  A    between atoms: _128  and  _130
REMARK   55  A    between atoms: _130  and  _131
REMARK   56  A    between atoms: _130  and  _133
REMARK   57  A    between atoms: _136  and  _138
REMARK   58  A    between atoms: _138  and  _139
REMARK   59  A    between atoms: _141  and  _143
REMARK   60  A    between atoms: _143  and  _144
REMARK   61  A    between atoms: _143  and  _146
REMARK   62  A    between atoms: _146  and  _147
REMARK   63  A    between atoms: _147  and  _148
REMARK   64  A    between atoms: _148  and  _149
REMARK   65  A    between atoms: _158  and  _160
REMARK   66  A    between atoms: _160  and  _161
REMARK   67  A    between atoms: _160  and  _163
REMARK   68  A    between atoms: _163  and  _164
REMARK   69  A    between atoms: _167  and  _169
REMARK   70  A    between atoms: _169  and  _170
REMARK   71  A    between atoms: _169  and  _172
REMARK   72  A    between atoms: _172  and  _173
REMARK   73  A    between atoms: _178  and  _180
REMARK   74  A    between atoms: _180  and  _181
REMARK   75  A    between atoms: _180  and  _183
REMARK   76  A    between atoms: _183  and  _184
REMARK   77  A    between atoms: _184  and  _185
REMARK   78  A    between atoms: _188  and  _190
REMARK   79  A    between atoms: _190  and  _191
REMARK   80  A    between atoms: _190  and  _193
REMARK   81  A    between atoms: _193  and  _194
REMARK   82  A    between atoms: _194  and  _195
REMARK   83  A    between atoms: _195  and  _196
REMARK   84  A    between atoms: _196  and  _197
REMARK   85  A    between atoms: _201  and  _203
REMARK   86  A    between atoms: _203  and  _204
REMARK   87  A    between atoms: _206  and  _208
REMARK   88  A    between atoms: _208  and  _209
REMARK   89  A    between atoms: _208  and  _211
REMARK   90  A    between atoms: _211  and  _212
REMARK   91  A    between atoms: _212  and  _213
REMARK   92  A    between atoms: _213  and  _214
REMARK   93  A    between atoms: _223  and  _225
REMARK   94  A    between atoms: _225  and  _226
REMARK   95  A    between atoms: _225  and  _228
REMARK   96  A    between atoms: _228  and  _229
REMARK   97  A    between atoms: _229  and  _230
REMARK   98  A    between atoms: _235  and  _237
REMARK   99  A    between atoms: _237  and  _238
REMARK  100  A    between atoms: _237  and  _240
REMARK  101  A    between atoms: _240  and  _241
REMARK  102  A    between atoms: _244  and  _246
REMARK  103  A    between atoms: _246  and  _247
REMARK  104  A    between atoms: _246  and  _249
REMARK  105  A    between atoms: _252  and  _254
REMARK  106  A    between atoms: _254  and  _255
REMARK  107  A    between atoms: _254  and  _257
REMARK  108  A    between atoms: _257  and  _258
REMARK  109  A    between atoms: _260  and  _262
REMARK  110  A    between atoms: _262  and  _263
REMARK  111  A    between atoms: _262  and  _265
REMARK  112  A    between atoms: _265  and  _266
REMARK  113  A    between atoms: _268  and  _270
REMARK  114  A    between atoms: _270  and  _271
REMARK  115  A    between atoms: _270  and  _273
REMARK  116  A    between atoms: _273  and  _274
REMARK  117  A    between atoms: _280  and  _282
REMARK  118  A    between atoms: _282  and  _283
REMARK  119  A    between atoms: _282  and  _285
REMARK  120  A    between atoms: _285  and  _286
REMARK  121  A    between atoms: _289  and  _291
REMARK  122  A    between atoms: _291  and  _292
REMARK  123  A    between atoms: _291  and  _294
REMARK  124  A    between atoms: _294  and  _295
REMARK  125  A    between atoms: _298  and  _300
REMARK  126  A    between atoms: _300  and  _301
REMARK  127  A    between atoms: _300  and  _303
REMARK  128  A    between atoms: _303  and  _304
REMARK  129  A    between atoms: _307  and  _309
REMARK  130  A    between atoms: _309  and  _310
REMARK  131  A    between atoms: _309  and  _312
REMARK  132  A    between atoms: _312  and  _313
REMARK  133  A    between atoms: _313  and  _314
REMARK  134  A    between atoms: _316  and  _318
REMARK  135  A    between atoms: _318  and  _319
REMARK  136  A    between atoms: _318  and  _321
REMARK  137  A    between atoms: _323  and  _325
REMARK  138  A    between atoms: _325  and  _326
REMARK  139  A    between atoms: _329  and  _331
REMARK  140  A    between atoms: _331  and  _332
REMARK  141  A    between atoms: _334  and  _336
REMARK  142  A    between atoms: _336  and  _337
REMARK  143  A    between atoms: _336  and  _339
REMARK  144  A    between atoms: _339  and  _340
REMARK  145  A    between atoms: _340  and  _341
REMARK  146  A    between atoms: _344  and  _346
REMARK  147  A    between atoms: _346  and  _347
REMARK  148  A    between atoms: _346  and  _349
REMARK  149  A    between atoms: _349  and  _350
REMARK  150  A    between atoms: _353  and  _355
REMARK  151  A    between atoms: _355  and  _356
REMARK  152  A    between atoms: _359  and  _361
REMARK  153  A    between atoms: _361  and  _362
REMARK  154  A    between atoms: _361  and  _364
REMARK  155  A    between atoms: _364  and  _365
REMARK  156  A    between atoms: _365  and  _468
REMARK  157  A    between atoms: _366  and  _368
REMARK  158  A    between atoms: _368  and  _369
REMARK  159  A    between atoms: _368  and  _371
REMARK  160  A    between atoms: _371  and  _372
REMARK  161  A    between atoms: _372  and  _373
REMARK  162  A    between atoms: _378  and  _380
REMARK  163  A    between atoms: _380  and  _381
REMARK  164  A    between atoms: _383  and  _385
REMARK  165  A    between atoms: _385  and  _386
REMARK  166  A    between atoms: _385  and  _388
REMARK  167  A    between atoms: _388  and  _389
REMARK  168  A    between atoms: _392  and  _394
REMARK  169  A    between atoms: _394  and  _395
REMARK  170  A    between atoms: _394  and  _397
REMARK  171  A    between atoms: _397  and  _398
REMARK  172  A    between atoms: _400  and  _402
REMARK  173  A    between atoms: _402  and  _403
REMARK  174  A    between atoms: _405  and  _407
REMARK  175  A    between atoms: _407  and  _408
REMARK  176  A    between atoms: _410  and  _412
REMARK  177  A    between atoms: _412  and  _413
REMARK  178  A    between atoms: _412  and  _415
REMARK  179  A    between atoms: _418  and  _420
REMARK  180  A    between atoms: _420  and  _421
REMARK  181  A    between atoms: _420  and  _423
REMARK  182  A    between atoms: _423  and  _424
REMARK  183  A    between atoms: _426  and  _428
REMARK  184  A    between atoms: _428  and  _429
REMARK  185  A    between atoms: _428  and  _431
REMARK  186  A    between atoms: _431  and  _432
REMARK  187  A    between atoms: _442  and  _444
REMARK  188  A    between atoms: _444  and  _445
REMARK  189  A    between atoms: _447  and  _449
REMARK  190  A    between atoms: _449  and  _450
REMARK  191  A    between atoms: _449  and  _452
REMARK  192  A    between atoms: _452  and  _453
REMARK  193  A    between atoms: _453  and  _454
REMARK  194  A    between atoms: _457  and  _459
REMARK  195  A    between atoms: _459  and  _460
REMARK  196  A    between atoms: _462  and  _464
REMARK  197  A    between atoms: _464  and  _465
REMARK  198  A    between atoms: _464  and  _467
REMARK  199  A    between atoms: _467  and  _468
REMARK  200  A    between atoms: _469  and  _471
REMARK  201  A    between atoms: _471  and  _472
REMARK  202  A    between atoms: _475  and  _477
REMARK  203  A    between atoms: _477  and  _478
REMARK  204  A    between atoms: _477  and  _480
REMARK  205  A    between atoms: _480  and  _481
REMARK  206  A    between atoms: _481  and  _482
REMARK  207  A    between atoms: _482  and  _483
REMARK  208  A    between atoms: _492  and  _494
REMARK  209  A    between atoms: _494  and  _495
REMARK  210  A    between atoms: _494  and  _497
REMARK  211  A    between atoms: _497  and  _498
REMARK  212  A    between atoms: _498  and  _499
REMARK  213  A    between atoms: _499  and  _500
REMARK  214  A    between atoms: _500  and  _501
REMARK  215  A    between atoms: _505  and  _507
REMARK  216  A    between atoms: _507  and  _508
REMARK  217  A    between atoms: _507  and  _510
REMARK  218  A    between atoms: _510  and  _511
REMARK  219  A    between atoms: _516  and  _517
REMARK  220  A    between atoms: _519  and  _521
REMARK  221  A    between atoms: _521  and  _522
REMARK  222  A    between atoms: _524  and  _526
REMARK  223  A    between atoms: _526  and  _527
REMARK  224  A    between atoms: _526  and  _529
REMARK  225  A    between atoms: _529  and  _530
REMARK  226  A    between atoms: _533  and  _535
REMARK  227  A    between atoms: _535  and  _536
REMARK  228  A    between atoms: _535  and  _538
REMARK  229  A    between atoms: _538  and  _539
REMARK  230  A    between atoms: _544  and  _545
REMARK                            x       y       z     vdW  Elec       q    Type
REMARK                         _______ _______ _______ _____ _____    ______ ____
ROOT
ATOM      1  O   HOH     1       6.542  11.159  18.697  0.00  0.00    +0.000 OA
ENDROOT
TORSDOF 0
