REMARK  Name = ../refined-set-2016/1yc1/1yc1_pocket.pdb
REMARK  232 active torsions:
REMARK  status: ('A' for Active; 'I' for Inactive)
REMARK    1  A    between atoms: _1  and  _3
REMARK    2  A    between atoms: _3  and  _4
REMARK    3  A    between atoms: _3  and  _6
REMARK    4  A    between atoms: _6  and  _7
REMARK    5  A    between atoms: _13  and  _15
REMARK    6  A    between atoms: _15  and  _16
REMARK    7  A    between atoms: _15  and  _18
REMARK    8  A    between atoms: _18  and  _19
REMARK    9  A    between atoms: _19  and  _20
REMARK   10  A    between atoms: _23  and  _25
REMARK   11  A    between atoms: _25  and  _26
REMARK   12  A    between atoms: _25  and  _28
REMARK   13  A    between atoms: _28  and  _29
REMARK   14  A    between atoms: _32  and  _34
REMARK   15  A    between atoms: _34  and  _35
REMARK   16  A    between atoms: _34  and  _37
REMARK   17  A    between atoms: _37  and  _38
REMARK   18  A    between atoms: _41  and  _43
REMARK   19  A    between atoms: _43  and  _44
REMARK   20  A    between atoms: _43  and  _46
REMARK   21  A    between atoms: _46  and  _47
REMARK   22  A    between atoms: _49  and  _51
REMARK   23  A    between atoms: _51  and  _52
REMARK   24  A    between atoms: _51  and  _54
REMARK   25  A    between atoms: _54  and  _55
REMARK   26  A    between atoms: _60  and  _62
REMARK   27  A    between atoms: _62  and  _63
REMARK   28  A    between atoms: _62  and  _65
REMARK   29  A    between atoms: _65  and  _66
REMARK   30  A    between atoms: _68  and  _70
REMARK   31  A    between atoms: _70  and  _71
REMARK   32  A    between atoms: _70  and  _73
REMARK   33  A    between atoms: _73  and  _74
REMARK   34  A    between atoms: _76  and  _78
REMARK   35  A    between atoms: _78  and  _79
REMARK   36  A    between atoms: _78  and  _81
REMARK   37  A    between atoms: _81  and  _82
REMARK   38  A    between atoms: _85  and  _87
REMARK   39  A    between atoms: _87  and  _88
REMARK   40  A    between atoms: _91  and  _93
REMARK   41  A    between atoms: _93  and  _94
REMARK   42  A    between atoms: _93  and  _96
REMARK   43  A    between atoms: _96  and  _97
REMARK   44  A    between atoms: _100  and  _102
REMARK   45  A    between atoms: _102  and  _103
REMARK   46  A    between atoms: _102  and  _105
REMARK   47  A    between atoms: _105  and  _106
REMARK   48  A    between atoms: _109  and  _111
REMARK   49  A    between atoms: _111  and  _112
REMARK   50  A    between atoms: _111  and  _114
REMARK   51  A    between atoms: _114  and  _115
REMARK   52  A    between atoms: _115  and  _116
REMARK   53  A    between atoms: _116  and  _117
REMARK   54  A    between atoms: _117  and  _118
REMARK   55  A    between atoms: _122  and  _124
REMARK   56  A    between atoms: _124  and  _125
REMARK   57  A    between atoms: _124  and  _127
REMARK   58  A    between atoms: _127  and  _128
REMARK   59  A    between atoms: _131  and  _133
REMARK   60  A    between atoms: _133  and  _134
REMARK   61  A    between atoms: _133  and  _136
REMARK   62  A    between atoms: _136  and  _137
REMARK   63  A    between atoms: _140  and  _142
REMARK   64  A    between atoms: _142  and  _143
REMARK   65  A    between atoms: _142  and  _145
REMARK   66  A    between atoms: _145  and  _146
REMARK   67  A    between atoms: _149  and  _151
REMARK   68  A    between atoms: _151  and  _152
REMARK   69  A    between atoms: _151  and  _154
REMARK   70  A    between atoms: _157  and  _159
REMARK   71  A    between atoms: _159  and  _160
REMARK   72  A    between atoms: _159  and  _162
REMARK   73  A    between atoms: _162  and  _163
REMARK   74  A    between atoms: _166  and  _168
REMARK   75  A    between atoms: _168  and  _169
REMARK   76  A    between atoms: _168  and  _171
REMARK   77  A    between atoms: _171  and  _172
REMARK   78  A    between atoms: _175  and  _177
REMARK   79  A    between atoms: _177  and  _178
REMARK   80  A    between atoms: _180  and  _182
REMARK   81  A    between atoms: _182  and  _183
REMARK   82  A    between atoms: _182  and  _185
REMARK   83  A    between atoms: _185  and  _186
REMARK   84  A    between atoms: _189  and  _191
REMARK   85  A    between atoms: _191  and  _192
REMARK   86  A    between atoms: _194  and  _196
REMARK   87  A    between atoms: _196  and  _197
REMARK   88  A    between atoms: _196  and  _199
REMARK   89  A    between atoms: _199  and  _200
REMARK   90  A    between atoms: _200  and  _201
REMARK   91  A    between atoms: _203  and  _205
REMARK   92  A    between atoms: _205  and  _206
REMARK   93  A    between atoms: _205  and  _208
REMARK   94  A    between atoms: _208  and  _209
REMARK   95  A    between atoms: _212  and  _214
REMARK   96  A    between atoms: _214  and  _215
REMARK   97  A    between atoms: _214  and  _217
REMARK   98  A    between atoms: _217  and  _218
REMARK   99  A    between atoms: _221  and  _223
REMARK  100  A    between atoms: _223  and  _224
REMARK  101  A    between atoms: _223  and  _226
REMARK  102  A    between atoms: _226  and  _227
REMARK  103  A    between atoms: _230  and  _232
REMARK  104  A    between atoms: _232  and  _233
REMARK  105  A    between atoms: _232  and  _235
REMARK  106  A    between atoms: _235  and  _236
REMARK  107  A    between atoms: _241  and  _243
REMARK  108  A    between atoms: _243  and  _244
REMARK  109  A    between atoms: _243  and  _246
REMARK  110  A    between atoms: _246  and  _247
REMARK  111  A    between atoms: _252  and  _254
REMARK  112  A    between atoms: _254  and  _255
REMARK  113  A    between atoms: _254  and  _257
REMARK  114  A    between atoms: _257  and  _258
REMARK  115  A    between atoms: _261  and  _263
REMARK  116  A    between atoms: _263  and  _264
REMARK  117  A    between atoms: _263  and  _266
REMARK  118  A    between atoms: _266  and  _267
REMARK  119  A    between atoms: _270  and  _272
REMARK  120  A    between atoms: _272  and  _273
REMARK  121  A    between atoms: _272  and  _275
REMARK  122  A    between atoms: _275  and  _276
REMARK  123  A    between atoms: _279  and  _281
REMARK  124  A    between atoms: _281  and  _282
REMARK  125  A    between atoms: _285  and  _287
REMARK  126  A    between atoms: _287  and  _288
REMARK  127  A    between atoms: _287  and  _290
REMARK  128  A    between atoms: _290  and  _291
REMARK  129  A    between atoms: _291  and  _292
REMARK  130  A    between atoms: _292  and  _293
REMARK  131  A    between atoms: _293  and  _294
REMARK  132  A    between atoms: _298  and  _300
REMARK  133  A    between atoms: _300  and  _301
REMARK  134  A    between atoms: _300  and  _303
REMARK  135  A    between atoms: _303  and  _304
REMARK  136  A    between atoms: _306  and  _308
REMARK  137  A    between atoms: _308  and  _309
REMARK  138  A    between atoms: _311  and  _313
REMARK  139  A    between atoms: _313  and  _314
REMARK  140  A    between atoms: _313  and  _316
REMARK  141  A    between atoms: _316  and  _317
REMARK  142  A    between atoms: _323  and  _325
REMARK  143  A    between atoms: _325  and  _326
REMARK  144  A    between atoms: _328  and  _330
REMARK  145  A    between atoms: _330  and  _331
REMARK  146  A    between atoms: _330  and  _333
REMARK  147  A    between atoms: _336  and  _338
REMARK  148  A    between atoms: _338  and  _339
REMARK  149  A    between atoms: _341  and  _343
REMARK  150  A    between atoms: _343  and  _344
REMARK  151  A    between atoms: _343  and  _346
REMARK  152  A    between atoms: _346  and  _347
REMARK  153  A    between atoms: _353  and  _355
REMARK  154  A    between atoms: _355  and  _356
REMARK  155  A    between atoms: _355  and  _358
REMARK  156  A    between atoms: _358  and  _359
REMARK  157  A    between atoms: _364  and  _365
REMARK  158  A    between atoms: _367  and  _369
REMARK  159  A    between atoms: _369  and  _370
REMARK  160  A    between atoms: _373  and  _375
REMARK  161  A    between atoms: _375  and  _376
REMARK  162  A    between atoms: _375  and  _378
REMARK  163  A    between atoms: _378  and  _379
REMARK  164  A    between atoms: _384  and  _385
REMARK  165  A    between atoms: _387  and  _389
REMARK  166  A    between atoms: _389  and  _390
REMARK  167  A    between atoms: _389  and  _392
REMARK  168  A    between atoms: _395  and  _397
REMARK  169  A    between atoms: _397  and  _398
REMARK  170  A    between atoms: _397  and  _400
REMARK  171  A    between atoms: _400  and  _401
REMARK  172  A    between atoms: _404  and  _406
REMARK  173  A    between atoms: _406  and  _407
REMARK  174  A    between atoms: _406  and  _409
REMARK  175  A    between atoms: _412  and  _414
REMARK  176  A    between atoms: _414  and  _415
REMARK  177  A    between atoms: _414  and  _417
REMARK  178  A    between atoms: _417  and  _418
REMARK  179  A    between atoms: _421  and  _423
REMARK  180  A    between atoms: _423  and  _424
REMARK  181  A    between atoms: _423  and  _426
REMARK  182  A    between atoms: _426  and  _427
REMARK  183  A    between atoms: _430  and  _432
REMARK  184  A    between atoms: _432  and  _433
REMARK  185  A    between atoms: _432  and  _435
REMARK  186  A    between atoms: _435  and  _436
REMARK  187  A    between atoms: _436  and  _437
REMARK  188  A    between atoms: _437  and  _438
REMARK  189  A    between atoms: _438  and  _439
REMARK  190  A    between atoms: _443  and  _445
REMARK  191  A    between atoms: _445  and  _446
REMARK  192  A    between atoms: _445  and  _448
REMARK  193  A    between atoms: _448  and  _449
REMARK  194  A    between atoms: _454  and  _456
REMARK  195  A    between atoms: _456  and  _457
REMARK  196  A    between atoms: _456  and  _459
REMARK  197  A    between atoms: _459  and  _460
REMARK  198  A    between atoms: _470  and  _472
REMARK  199  A    between atoms: _472  and  _473
REMARK  200  A    between atoms: _472  and  _475
REMARK  201  A    between atoms: _475  and  _476
REMARK  202  A    between atoms: _476  and  _477
REMARK  203  A    between atoms: _479  and  _481
REMARK  204  A    between atoms: _481  and  _482
REMARK  205  A    between atoms: _481  and  _484
REMARK  206  A    between atoms: _484  and  _485
REMARK  207  A    between atoms: _485  and  _486
REMARK  208  A    between atoms: _486  and  _487
REMARK  209  A    between atoms: _496  and  _498
REMARK  210  A    between atoms: _498  and  _499
REMARK  211  A    between atoms: _501  and  _503
REMARK  212  A    between atoms: _503  and  _504
REMARK  213  A    between atoms: _503  and  _506
REMARK  214  A    between atoms: _506  and  _507
REMARK  215  A    between atoms: _510  and  _512
REMARK  216  A    between atoms: _512  and  _513
REMARK  217  A    between atoms: _512  and  _515
REMARK  218  A    between atoms: _515  and  _516
REMARK  219  A    between atoms: _516  and  _517
REMARK  220  A    between atoms: _517  and  _518
REMARK  221  A    between atoms: _518  and  _519
REMARK  222  A    between atoms: _523  and  _525
REMARK  223  A    between atoms: _525  and  _526
REMARK  224  A    between atoms: _525  and  _528
REMARK  225  A    between atoms: _531  and  _533
REMARK  226  A    between atoms: _533  and  _534
REMARK  227  A    between atoms: _533  and  _536
REMARK  228  A    between atoms: _536  and  _537
REMARK  229  A    between atoms: _540  and  _542
REMARK  230  A    between atoms: _542  and  _543
REMARK  231  A    between atoms: _542  and  _545
REMARK  232  A    between atoms: _545  and  _546
REMARK                            x       y       z     vdW  Elec       q    Type
REMARK                         _______ _______ _______ _____ _____    ______ ____
ROOT
ATOM      1  CB  PHE A   1      -0.191  31.401  10.115  0.00  0.00    +0.051 C 
ENDROOT
BRANCH   1   2
ATOM      2  CG  PHE A   1      -1.299  30.448  10.476  0.00  0.00    -0.020 A 
ATOM      3  CD2 PHE A   1      -1.765  30.365  11.793  0.00  0.00    -0.004 A 
ATOM      4  CE2 PHE A   1      -2.913  29.552  12.126  0.00  0.00    -0.000 A 
ATOM      5  CZ  PHE A   1      -3.547  28.841  11.095  0.00  0.00    -0.000 A 
ATOM      6  CE1 PHE A   1      -3.074  28.915   9.797  0.00  0.00    -0.000 A 
ATOM      7  CD1 PHE A   1      -1.957  29.717   9.469  0.00  0.00    -0.004 A 
ENDBRANCH   1   2
BRANCH   1   8
ATOM      8  CA  PHE A   1      -0.670  32.868   9.917  0.00  0.00    +0.137 C 
BRANCH   8   9
ATOM      9  N   PHE A   1      -0.886  33.540  11.185  0.00  0.00    -0.239 NA
ATOM     10  H   PHE A   1      -0.728  33.048  12.087  0.00  0.00    +0.142 HD
ENDBRANCH   8   9
BRANCH   8  11
ATOM     11  C   PHE A   1      -1.921  32.887   9.035  0.00  0.00    +0.224 C 
ATOM     12  O   PHE A   1      -1.826  33.003   7.789  0.00  0.00    -0.287 OA
ENDBRANCH   8  11
ENDBRANCH   1   8
TORSDOF 4
REMARK  Name = ../refined-set-2016/1yc1/1yc1_pocket.pdb
REMARK  232 active torsions:
REMARK  status: ('A' for Active; 'I' for Inactive)
REMARK    1  A    between atoms: _1  and  _3
REMARK    2  A    between atoms: _3  and  _4
REMARK    3  A    between atoms: _3  and  _6
REMARK    4  A    between atoms: _6  and  _7
REMARK    5  A    between atoms: _13  and  _15
REMARK    6  A    between atoms: _15  and  _16
REMARK    7  A    between atoms: _15  and  _18
REMARK    8  A    between atoms: _18  and  _19
REMARK    9  A    between atoms: _19  and  _20
REMARK   10  A    between atoms: _23  and  _25
REMARK   11  A    between atoms: _25  and  _26
REMARK   12  A    between atoms: _25  and  _28
REMARK   13  A    between atoms: _28  and  _29
REMARK   14  A    between atoms: _32  and  _34
REMARK   15  A    between atoms: _34  and  _35
REMARK   16  A    between atoms: _34  and  _37
REMARK   17  A    between atoms: _37  and  _38
REMARK   18  A    between atoms: _41  and  _43
REMARK   19  A    between atoms: _43  and  _44
REMARK   20  A    between atoms: _43  and  _46
REMARK   21  A    between atoms: _46  and  _47
REMARK   22  A    between atoms: _49  and  _51
REMARK   23  A    between atoms: _51  and  _52
REMARK   24  A    between atoms: _51  and  _54
REMARK   25  A    between atoms: _54  and  _55
REMARK   26  A    between atoms: _60  and  _62
REMARK   27  A    between atoms: _62  and  _63
REMARK   28  A    between atoms: _62  and  _65
REMARK   29  A    between atoms: _65  and  _66
REMARK   30  A    between atoms: _68  and  _70
REMARK   31  A    between atoms: _70  and  _71
REMARK   32  A    between atoms: _70  and  _73
REMARK   33  A    between atoms: _73  and  _74
REMARK   34  A    between atoms: _76  and  _78
REMARK   35  A    between atoms: _78  and  _79
REMARK   36  A    between atoms: _78  and  _81
REMARK   37  A    between atoms: _81  and  _82
REMARK   38  A    between atoms: _85  and  _87
REMARK   39  A    between atoms: _87  and  _88
REMARK   40  A    between atoms: _91  and  _93
REMARK   41  A    between atoms: _93  and  _94
REMARK   42  A    between atoms: _93  and  _96
REMARK   43  A    between atoms: _96  and  _97
REMARK   44  A    between atoms: _100  and  _102
REMARK   45  A    between atoms: _102  and  _103
REMARK   46  A    between atoms: _102  and  _105
REMARK   47  A    between atoms: _105  and  _106
REMARK   48  A    between atoms: _109  and  _111
REMARK   49  A    between atoms: _111  and  _112
REMARK   50  A    between atoms: _111  and  _114
REMARK   51  A    between atoms: _114  and  _115
REMARK   52  A    between atoms: _115  and  _116
REMARK   53  A    between atoms: _116  and  _117
REMARK   54  A    between atoms: _117  and  _118
REMARK   55  A    between atoms: _122  and  _124
REMARK   56  A    between atoms: _124  and  _125
REMARK   57  A    between atoms: _124  and  _127
REMARK   58  A    between atoms: _127  and  _128
REMARK   59  A    between atoms: _131  and  _133
REMARK   60  A    between atoms: _133  and  _134
REMARK   61  A    between atoms: _133  and  _136
REMARK   62  A    between atoms: _136  and  _137
REMARK   63  A    between atoms: _140  and  _142
REMARK   64  A    between atoms: _142  and  _143
REMARK   65  A    between atoms: _142  and  _145
REMARK   66  A    between atoms: _145  and  _146
REMARK   67  A    between atoms: _149  and  _151
REMARK   68  A    between atoms: _151  and  _152
REMARK   69  A    between atoms: _151  and  _154
REMARK   70  A    between atoms: _157  and  _159
REMARK   71  A    between atoms: _159  and  _160
REMARK   72  A    between atoms: _159  and  _162
REMARK   73  A    between atoms: _162  and  _163
REMARK   74  A    between atoms: _166  and  _168
REMARK   75  A    between atoms: _168  and  _169
REMARK   76  A    between atoms: _168  and  _171
REMARK   77  A    between atoms: _171  and  _172
REMARK   78  A    between atoms: _175  and  _177
REMARK   79  A    between atoms: _177  and  _178
REMARK   80  A    between atoms: _180  and  _182
REMARK   81  A    between atoms: _182  and  _183
REMARK   82  A    between atoms: _182  and  _185
REMARK   83  A    between atoms: _185  and  _186
REMARK   84  A    between atoms: _189  and  _191
REMARK   85  A    between atoms: _191  and  _192
REMARK   86  A    between atoms: _194  and  _196
REMARK   87  A    between atoms: _196  and  _197
REMARK   88  A    between atoms: _196  and  _199
REMARK   89  A    between atoms: _199  and  _200
REMARK   90  A    between atoms: _200  and  _201
REMARK   91  A    between atoms: _203  and  _205
REMARK   92  A    between atoms: _205  and  _206
REMARK   93  A    between atoms: _205  and  _208
REMARK   94  A    between atoms: _208  and  _209
REMARK   95  A    between atoms: _212  and  _214
REMARK   96  A    between atoms: _214  and  _215
REMARK   97  A    between atoms: _214  and  _217
REMARK   98  A    between atoms: _217  and  _218
REMARK   99  A    between atoms: _221  and  _223
REMARK  100  A    between atoms: _223  and  _224
REMARK  101  A    between atoms: _223  and  _226
REMARK  102  A    between atoms: _226  and  _227
REMARK  103  A    between atoms: _230  and  _232
REMARK  104  A    between atoms: _232  and  _233
REMARK  105  A    between atoms: _232  and  _235
REMARK  106  A    between atoms: _235  and  _236
REMARK  107  A    between atoms: _241  and  _243
REMARK  108  A    between atoms: _243  and  _244
REMARK  109  A    between atoms: _243  and  _246
REMARK  110  A    between atoms: _246  and  _247
REMARK  111  A    between atoms: _252  and  _254
REMARK  112  A    between atoms: _254  and  _255
REMARK  113  A    between atoms: _254  and  _257
REMARK  114  A    between atoms: _257  and  _258
REMARK  115  A    between atoms: _261  and  _263
REMARK  116  A    between atoms: _263  and  _264
REMARK  117  A    between atoms: _263  and  _266
REMARK  118  A    between atoms: _266  and  _267
REMARK  119  A    between atoms: _270  and  _272
REMARK  120  A    between atoms: _272  and  _273
REMARK  121  A    between atoms: _272  and  _275
REMARK  122  A    between atoms: _275  and  _276
REMARK  123  A    between atoms: _279  and  _281
REMARK  124  A    between atoms: _281  and  _282
REMARK  125  A    between atoms: _285  and  _287
REMARK  126  A    between atoms: _287  and  _288
REMARK  127  A    between atoms: _287  and  _290
REMARK  128  A    between atoms: _290  and  _291
REMARK  129  A    between atoms: _291  and  _292
REMARK  130  A    between atoms: _292  and  _293
REMARK  131  A    between atoms: _293  and  _294
REMARK  132  A    between atoms: _298  and  _300
REMARK  133  A    between atoms: _300  and  _301
REMARK  134  A    between atoms: _300  and  _303
REMARK  135  A    between atoms: _303  and  _304
REMARK  136  A    between atoms: _306  and  _308
REMARK  137  A    between atoms: _308  and  _309
REMARK  138  A    between atoms: _311  and  _313
REMARK  139  A    between atoms: _313  and  _314
REMARK  140  A    between atoms: _313  and  _316
REMARK  141  A    between atoms: _316  and  _317
REMARK  142  A    between atoms: _323  and  _325
REMARK  143  A    between atoms: _325  and  _326
REMARK  144  A    between atoms: _328  and  _330
REMARK  145  A    between atoms: _330  and  _331
REMARK  146  A    between atoms: _330  and  _333
REMARK  147  A    between atoms: _336  and  _338
REMARK  148  A    between atoms: _338  and  _339
REMARK  149  A    between atoms: _341  and  _343
REMARK  150  A    between atoms: _343  and  _344
REMARK  151  A    between atoms: _343  and  _346
REMARK  152  A    between atoms: _346  and  _347
REMARK  153  A    between atoms: _353  and  _355
REMARK  154  A    between atoms: _355  and  _356
REMARK  155  A    between atoms: _355  and  _358
REMARK  156  A    between atoms: _358  and  _359
REMARK  157  A    between atoms: _364  and  _365
REMARK  158  A    between atoms: _367  and  _369
REMARK  159  A    between atoms: _369  and  _370
REMARK  160  A    between atoms: _373  and  _375
REMARK  161  A    between atoms: _375  and  _376
REMARK  162  A    between atoms: _375  and  _378
REMARK  163  A    between atoms: _378  and  _379
REMARK  164  A    between atoms: _384  and  _385
REMARK  165  A    between atoms: _387  and  _389
REMARK  166  A    between atoms: _389  and  _390
REMARK  167  A    between atoms: _389  and  _392
REMARK  168  A    between atoms: _395  and  _397
REMARK  169  A    between atoms: _397  and  _398
REMARK  170  A    between atoms: _397  and  _400
REMARK  171  A    between atoms: _400  and  _401
REMARK  172  A    between atoms: _404  and  _406
REMARK  173  A    between atoms: _406  and  _407
REMARK  174  A    between atoms: _406  and  _409
REMARK  175  A    between atoms: _412  and  _414
REMARK  176  A    between atoms: _414  and  _415
REMARK  177  A    between atoms: _414  and  _417
REMARK  178  A    between atoms: _417  and  _418
REMARK  179  A    between atoms: _421  and  _423
REMARK  180  A    between atoms: _423  and  _424
REMARK  181  A    between atoms: _423  and  _426
REMARK  182  A    between atoms: _426  and  _427
REMARK  183  A    between atoms: _430  and  _432
REMARK  184  A    between atoms: _432  and  _433
REMARK  185  A    between atoms: _432  and  _435
REMARK  186  A    between atoms: _435  and  _436
REMARK  187  A    between atoms: _436  and  _437
REMARK  188  A    between atoms: _437  and  _438
REMARK  189  A    between atoms: _438  and  _439
REMARK  190  A    between atoms: _443  and  _445
REMARK  191  A    between atoms: _445  and  _446
REMARK  192  A    between atoms: _445  and  _448
REMARK  193  A    between atoms: _448  and  _449
REMARK  194  A    between atoms: _454  and  _456
REMARK  195  A    between atoms: _456  and  _457
REMARK  196  A    between atoms: _456  and  _459
REMARK  197  A    between atoms: _459  and  _460
REMARK  198  A    between atoms: _470  and  _472
REMARK  199  A    between atoms: _472  and  _473
REMARK  200  A    between atoms: _472  and  _475
REMARK  201  A    between atoms: _475  and  _476
REMARK  202  A    between atoms: _476  and  _477
REMARK  203  A    between atoms: _479  and  _481
REMARK  204  A    between atoms: _481  and  _482
REMARK  205  A    between atoms: _481  and  _484
REMARK  206  A    between atoms: _484  and  _485
REMARK  207  A    between atoms: _485  and  _486
REMARK  208  A    between atoms: _486  and  _487
REMARK  209  A    between atoms: _496  and  _498
REMARK  210  A    between atoms: _498  and  _499
REMARK  211  A    between atoms: _501  and  _503
REMARK  212  A    between atoms: _503  and  _504
REMARK  213  A    between atoms: _503  and  _506
REMARK  214  A    between atoms: _506  and  _507
REMARK  215  A    between atoms: _510  and  _512
REMARK  216  A    between atoms: _512  and  _513
REMARK  217  A    between atoms: _512  and  _515
REMARK  218  A    between atoms: _515  and  _516
REMARK  219  A    between atoms: _516  and  _517
REMARK  220  A    between atoms: _517  and  _518
REMARK  221  A    between atoms: _518  and  _519
REMARK  222  A    between atoms: _523  and  _525
REMARK  223  A    between atoms: _525  and  _526
REMARK  224  A    between atoms: _525  and  _528
REMARK  225  A    between atoms: _531  and  _533
REMARK  226  A    between atoms: _533  and  _534
REMARK  227  A    between atoms: _533  and  _536
REMARK  228  A    between atoms: _536  and  _537
REMARK  229  A    between atoms: _540  and  _542
REMARK  230  A    between atoms: _542  and  _543
REMARK  231  A    between atoms: _542  and  _545
REMARK  232  A    between atoms: _545  and  _546
REMARK                            x       y       z     vdW  Elec       q    Type
REMARK                         _______ _______ _______ _____ _____    ______ ____
ROOT
ATOM      1  CA  SER A   7      -7.066  37.946  -1.657  0.00  0.00    +0.178 C 
ENDROOT
BRANCH   1   3
ATOM      2  C   SER A   6      -6.033  35.817  -2.031  0.00  0.00    +0.243 C 
ATOM      3  N   SER A   7      -6.374  36.757  -1.178  0.00  0.00    -0.295 N 
ATOM      4  H   SER A   7      -6.151  36.653  -0.168  0.00  0.00    +0.150 HD
ATOM      5  O   SER A   6      -6.336  35.862  -3.236  0.00  0.00    -0.273 OA
BRANCH   2   6
ATOM      6  CA  SER A   6      -5.269  34.642  -1.435  0.00  0.00    +0.178 C 
BRANCH   6   8
ATOM      7  C   ASN A   5      -3.211  35.894  -1.066  0.00  0.00    +0.241 C 
ATOM      8  N   SER A   6      -4.195  35.160  -0.552  0.00  0.00    -0.295 N 
ATOM      9  H   SER A   6      -4.211  34.950   0.466  0.00  0.00    +0.150 HD
ATOM     10  O   ASN A   5      -3.192  36.236  -2.227  0.00  0.00    -0.273 OA
BRANCH   7  11
ATOM     11  CA  ASN A   5      -2.120  36.390  -0.077  0.00  0.00    +0.158 C 
BRANCH  11  13
ATOM     12  C   SER A   4      -3.644  37.786   1.185  0.00  0.00    +0.243 C 
ATOM     13  N   ASN A   5      -2.766  36.794   1.172  0.00  0.00    -0.297 N 
ATOM     14  H   ASN A   5      -2.534  36.299   2.057  0.00  0.00    +0.150 HD
ATOM     15  O   SER A   4      -3.927  38.435   0.161  0.00  0.00    -0.273 OA
BRANCH  12  16
ATOM     16  CA  SER A   4      -4.287  38.109   2.533  0.00  0.00    +0.178 C 
BRANCH  16  18
ATOM     17  C   ILE A   3      -5.596  36.093   2.679  0.00  0.00    +0.241 C 
ATOM     18  N   SER A   4      -4.679  36.904   3.209  0.00  0.00    -0.295 N 
ATOM     19  H   SER A   4      -4.243  36.661   4.122  0.00  0.00    +0.150 HD
ATOM     20  O   ILE A   3      -6.144  36.337   1.603  0.00  0.00    -0.273 OA
BRANCH  17  21
ATOM     21  CA  ILE A   3      -5.937  34.845   3.495  0.00  0.00    +0.149 C 
BRANCH  21  23
ATOM     22  C   LEU A   2      -3.725  33.898   3.318  0.00  0.00    +0.241 C 
ATOM     23  N   ILE A   3      -4.696  34.346   4.106  0.00  0.00    -0.297 N 
ATOM     24  H   ILE A   3      -4.580  34.344   5.140  0.00  0.00    +0.150 HD
ATOM     25  O   LEU A   2      -3.792  33.938   2.084  0.00  0.00    -0.273 OA
BRANCH  22  26
ATOM     26  CA  LEU A   2      -2.458  33.394   3.995  0.00  0.00    +0.149 C 
BRANCH  26  28
ATOM     27  C   GLU A   1      -1.724  35.487   4.948  0.00  0.00    +0.238 C 
ATOM     28  N   LEU A   2      -2.112  34.222   5.153  0.00  0.00    -0.297 N 
ATOM     29  H   LEU A   2      -2.167  33.834   6.117  0.00  0.00    +0.150 HD
ATOM     30  O   GLU A   1      -1.541  35.962   3.819  0.00  0.00    -0.274 OA
BRANCH  27  31
ATOM     31  CA  GLU A   1      -1.421  36.319   6.168  0.00  0.00    +0.145 C 
BRANCH  31  32
ATOM     32  N   GLU A   1      -2.390  36.115   7.264  0.00  0.00    -0.238 NA
ATOM     33  H   GLU A   1      -2.119  35.603   8.128  0.00  0.00    +0.142 HD
ENDBRANCH  31  32
BRANCH  31  34
ATOM     34  CB  GLU A   1      -0.013  35.988   6.641  0.00  0.00    +0.038 C 
BRANCH  34  35
ATOM     35  CG  GLU A   1       0.451  36.914   7.778  0.00  0.00    +0.116 C 
BRANCH  35  36
ATOM     36  CD  GLU A   1       0.374  38.408   7.431  0.00  0.00    +0.365 C 
ATOM     37  OE2 GLU A   1       0.199  39.204   8.350  0.00  0.00    -0.246 OA
ATOM     38  OE1 GLU A   1       0.518  38.815   6.283  0.00  0.00    -0.246 OA
ENDBRANCH  35  36
ENDBRANCH  34  35
ENDBRANCH  31  34
ENDBRANCH  27  31
ENDBRANCH  26  28
BRANCH  26  39
ATOM     39  CB  LEU A   2      -2.658  31.932   4.410  0.00  0.00    +0.029 C 
BRANCH  39  40
ATOM     40  CG  LEU A   2      -1.378  31.353   5.028  0.00  0.00    +0.002 C 
ATOM     41  CD2 LEU A   2      -1.619  29.932   5.493  0.00  0.00    +0.000 C 
ATOM     42  CD1 LEU A   2      -0.266  31.335   3.994  0.00  0.00    +0.000 C 
ENDBRANCH  39  40
ENDBRANCH  26  39
ENDBRANCH  22  26
ENDBRANCH  21  23
BRANCH  21  43
ATOM     43  CB  ILE A   3      -6.987  35.120   4.613  0.00  0.00    +0.027 C 
ATOM     44  CG2 ILE A   3      -8.091  36.122   4.117  0.00  0.00    +0.002 C 
BRANCH  43  45
ATOM     45  CG1 ILE A   3      -7.546  33.780   5.081  0.00  0.00    +0.002 C 
ATOM     46  CD1 ILE A   3      -8.479  33.863   6.312  0.00  0.00    +0.000 C 
ENDBRANCH  43  45
ENDBRANCH  21  43
ENDBRANCH  17  21
ENDBRANCH  16  18
BRANCH  16  47
ATOM     47  CB  SER A   4      -3.326  38.923   3.460  0.00  0.00    +0.166 C 
BRANCH  47  48
ATOM     48  OG  SER A   4      -2.855  40.066   2.729  0.00  0.00    -0.380 OA
ATOM     49  H   SER A   4      -2.371  39.763   1.920  0.00  0.00    +0.211 HD
ENDBRANCH  47  48
ENDBRANCH  16  47
ENDBRANCH  12  16
ENDBRANCH  11  13
BRANCH  11  50
ATOM     50  CB  ASN A   5      -1.132  35.260   0.161  0.00  0.00    +0.114 C 
BRANCH  50  51
ATOM     51  CG  ASN A   5       0.174  35.766   0.754  0.00  0.00    +0.222 C 
ATOM     52  OD1 ASN A   5       0.279  36.974   1.118  0.00  0.00    -0.275 OA
ATOM     53  ND2 ASN A   5       1.173  34.854   0.878  0.00  0.00    -0.329 N 
ATOM     54 HD21 ASN A   5       2.085  35.135   1.291  0.00  0.00    +0.145 HD
ATOM     55 HD22 ASN A   5       1.026  33.875   0.560  0.00  0.00    +0.145 HD
ENDBRANCH  50  51
ENDBRANCH  11  50
ENDBRANCH   7  11
ENDBRANCH   6   8
BRANCH   6  56
ATOM     56  CB  SER A   6      -6.217  33.771  -0.636  0.00  0.00    +0.166 C 
BRANCH  56  57
ATOM     57  OG  SER A   6      -5.615  32.511  -0.303  0.00  0.00    -0.380 OA
ATOM     58  H   SER A   6      -5.373  32.032  -1.135  0.00  0.00    +0.211 HD
ENDBRANCH  56  57
ENDBRANCH   6  56
ENDBRANCH   2   6
ENDBRANCH   1   3
BRANCH   1  59
ATOM     59  C   SER A   7      -6.221  38.682  -2.703  0.00  0.00    +0.243 C 
ATOM     60  N   ASP A   8      -4.919  38.797  -2.508  0.00  0.00    -0.296 N 
ATOM     61  H   ASP A   8      -4.474  38.405  -1.653  0.00  0.00    +0.150 HD
ATOM     62  O   SER A   7      -6.748  39.116  -3.729  0.00  0.00    -0.273 OA
BRANCH  60  63
ATOM     63  CA  ASP A   8      -4.109  39.492  -3.526  0.00  0.00    +0.160 C 
BRANCH  63  64
ATOM     64  C   ASP A   8      -4.117  38.738  -4.865  0.00  0.00    +0.241 C 
ATOM     65  N   ALA A   9      -4.059  37.417  -4.801  0.00  0.00    -0.297 N 
ATOM     66  H   ALA A   9      -3.997  36.959  -3.869  0.00  0.00    +0.150 HD
ATOM     67  O   ASP A   8      -4.195  39.360  -5.933  0.00  0.00    -0.273 OA
BRANCH  65  68
ATOM     68  CA  ALA A   9      -4.080  36.578  -6.009  0.00  0.00    +0.149 C 
ATOM     69  CB  ALA A   9      -3.761  35.131  -5.675  0.00  0.00    +0.031 C 
BRANCH  68  70
ATOM     70  C   ALA A   9      -5.453  36.631  -6.675  0.00  0.00    +0.241 C 
ATOM     71  N   LEU A  10      -6.512  36.738  -5.882  0.00  0.00    -0.297 N 
ATOM     72  H   LEU A  10      -6.370  36.747  -4.852  0.00  0.00    +0.150 HD
ATOM     73  O   ALA A   9      -5.518  36.578  -7.909  0.00  0.00    -0.273 OA
BRANCH  71  74
ATOM     74  CA  LEU A  10      -7.892  36.845  -6.418  0.00  0.00    +0.149 C 
BRANCH  74  75
ATOM     75  C   LEU A  10      -7.992  38.200  -7.131  0.00  0.00    +0.241 C 
ATOM     76  N   ASP A  11      -7.448  39.242  -6.492  0.00  0.00    -0.297 N 
ATOM     77  H   ASP A  11      -7.029  39.124  -5.548  0.00  0.00    +0.150 HD
ATOM     78  O   LEU A  10      -8.558  38.299  -8.263  0.00  0.00    -0.273 OA
BRANCH  76  79
ATOM     79  CA  ASP A  11      -7.454  40.550  -7.146  0.00  0.00    +0.160 C 
BRANCH  79  80
ATOM     80  C   ASP A  11      -6.759  40.446  -8.493  0.00  0.00    +0.241 C 
ATOM     81  N   LYS A  12      -5.631  39.726  -8.548  0.00  0.00    -0.297 N 
ATOM     82  H   LYS A  12      -5.299  39.220  -7.702  0.00  0.00    +0.150 HD
ATOM     83  O   ASP A  11      -7.251  41.027  -9.480  0.00  0.00    -0.273 OA
BRANCH  81  84
ATOM     84  CA  LYS A  12      -4.863  39.647  -9.790  0.00  0.00    +0.149 C 
BRANCH  84  85
ATOM     85  C   LYS A  12      -5.672  39.059 -10.933  0.00  0.00    +0.241 C 
ATOM     86  N   ILE A  13      -6.248  37.897 -10.698  0.00  0.00    -0.298 N 
ATOM     87  H   ILE A  13      -6.171  37.434  -9.770  0.00  0.00    +0.150 HD
ATOM     88  O   LYS A  12      -5.813  39.666 -12.020  0.00  0.00    -0.273 OA
BRANCH  86  89
ATOM     89  CA  ILE A  13      -7.003  37.280 -11.798  0.00  0.00    +0.137 C 
BRANCH  89  90
ATOM     90  C   ILE A  13      -8.246  38.075 -12.145  0.00  0.00    +0.227 C 
ATOM     91  O   ILE A  13      -8.636  38.134 -13.338  0.00  0.00    -0.286 OA
ENDBRANCH  89  90
BRANCH  89  92
ATOM     92  CB  ILE A  13      -7.426  35.836 -11.492  0.00  0.00    +0.026 C 
ATOM     93  CG2 ILE A  13      -8.431  35.782 -10.315  0.00  0.00    +0.002 C 
BRANCH  92  94
ATOM     94  CG1 ILE A  13      -7.973  35.198 -12.772  0.00  0.00    +0.002 C 
ATOM     95  CD1 ILE A  13      -6.907  35.052 -13.852  0.00  0.00    +0.000 C 
ENDBRANCH  92  94
ENDBRANCH  89  92
ENDBRANCH  86  89
ENDBRANCH  84  85
BRANCH  84  96
ATOM     96  CB  LYS A  12      -3.586  38.831  -9.603  0.00  0.00    +0.029 C 
BRANCH  96  97
ATOM     97  CG  LYS A  12      -2.445  39.650  -8.949  0.00  0.00    +0.000 C 
BRANCH  97  98
ATOM     98  CD  LYS A  12      -1.134  38.839  -9.030  0.00  0.00    -0.024 C 
BRANCH  98  99
ATOM     99  CE  LYS A  12       0.134  39.687  -8.623  0.00  0.00    -0.086 C 
BRANCH  99 100
ATOM    100  NZ  LYS A  12       1.377  38.920  -8.929  0.00  0.00    +0.380 N 
ATOM    101  HZ1 LYS A  12       1.373  38.028  -8.394  0.00  0.00    -0.089 HD
ATOM    102  HZ2 LYS A  12       2.207  39.485  -8.658  0.00  0.00    -0.089 HD
ATOM    103  HZ3 LYS A  12       1.414  38.714  -9.948  0.00  0.00    -0.089 HD
ENDBRANCH  99 100
ENDBRANCH  98  99
ENDBRANCH  97  98
ENDBRANCH  96  97
ENDBRANCH  84  96
ENDBRANCH  81  84
ENDBRANCH  79  80
BRANCH  79 104
ATOM    104  CB  ASP A  11      -6.659  41.594  -6.358  0.00  0.00    +0.143 C 
BRANCH 104 105
ATOM    105  CG  ASP A  11      -7.388  42.080  -5.111  0.00  0.00    +0.367 C 
ATOM    106  OD2 ASP A  11      -6.702  42.737  -4.268  0.00  0.00    -0.246 OA
ATOM    107  OD1 ASP A  11      -8.611  41.854  -4.974  0.00  0.00    -0.246 OA
ENDBRANCH 104 105
ENDBRANCH  79 104
ENDBRANCH  76  79
ENDBRANCH  74  75
BRANCH  74 108
ATOM    108  CB  LEU A  10      -8.893  36.749  -5.298  0.00  0.00    +0.029 C 
BRANCH 108 109
ATOM    109  CG  LEU A  10      -8.998  35.258  -4.872  0.00  0.00    +0.002 C 
ATOM    110  CD2 LEU A  10      -9.668  35.192  -3.496  0.00  0.00    +0.000 C 
ATOM    111  CD1 LEU A  10      -9.888  34.454  -5.898  0.00  0.00    +0.000 C 
ENDBRANCH 108 109
ENDBRANCH  74 108
ENDBRANCH  71  74
ENDBRANCH  68  70
ENDBRANCH  65  68
ENDBRANCH  63  64
BRANCH  63 112
ATOM    112  CB  ASP A   8      -2.667  39.647  -3.037  0.00  0.00    +0.143 C 
BRANCH 112 113
ATOM    113  CG  ASP A   8      -2.568  40.625  -1.864  0.00  0.00    +0.367 C 
ATOM    114  OD2 ASP A   8      -1.465  40.698  -1.239  0.00  0.00    -0.246 OA
ATOM    115  OD1 ASP A   8      -3.568  41.306  -1.576  0.00  0.00    -0.246 OA
ENDBRANCH 112 113
ENDBRANCH  63 112
ENDBRANCH  60  63
ENDBRANCH   1  59
BRANCH   1 116
ATOM    116  CB  SER A   7      -7.346  38.867  -0.489  0.00  0.00    +0.166 C 
BRANCH 116 117
ATOM    117  OG  SER A   7      -7.963  40.054  -0.942  0.00  0.00    -0.380 OA
ATOM    118  H   SER A   7      -7.363  40.513  -1.581  0.00  0.00    +0.211 HD
ENDBRANCH 116 117
ENDBRANCH   1 116
TORSDOF 54
REMARK  Name = ../refined-set-2016/1yc1/1yc1_pocket.pdb
REMARK  232 active torsions:
REMARK  status: ('A' for Active; 'I' for Inactive)
REMARK    1  A    between atoms: _1  and  _3
REMARK    2  A    between atoms: _3  and  _4
REMARK    3  A    between atoms: _3  and  _6
REMARK    4  A    between atoms: _6  and  _7
REMARK    5  A    between atoms: _13  and  _15
REMARK    6  A    between atoms: _15  and  _16
REMARK    7  A    between atoms: _15  and  _18
REMARK    8  A    between atoms: _18  and  _19
REMARK    9  A    between atoms: _19  and  _20
REMARK   10  A    between atoms: _23  and  _25
REMARK   11  A    between atoms: _25  and  _26
REMARK   12  A    between atoms: _25  and  _28
REMARK   13  A    between atoms: _28  and  _29
REMARK   14  A    between atoms: _32  and  _34
REMARK   15  A    between atoms: _34  and  _35
REMARK   16  A    between atoms: _34  and  _37
REMARK   17  A    between atoms: _37  and  _38
REMARK   18  A    between atoms: _41  and  _43
REMARK   19  A    between atoms: _43  and  _44
REMARK   20  A    between atoms: _43  and  _46
REMARK   21  A    between atoms: _46  and  _47
REMARK   22  A    between atoms: _49  and  _51
REMARK   23  A    between atoms: _51  and  _52
REMARK   24  A    between atoms: _51  and  _54
REMARK   25  A    between atoms: _54  and  _55
REMARK   26  A    between atoms: _60  and  _62
REMARK   27  A    between atoms: _62  and  _63
REMARK   28  A    between atoms: _62  and  _65
REMARK   29  A    between atoms: _65  and  _66
REMARK   30  A    between atoms: _68  and  _70
REMARK   31  A    between atoms: _70  and  _71
REMARK   32  A    between atoms: _70  and  _73
REMARK   33  A    between atoms: _73  and  _74
REMARK   34  A    between atoms: _76  and  _78
REMARK   35  A    between atoms: _78  and  _79
REMARK   36  A    between atoms: _78  and  _81
REMARK   37  A    between atoms: _81  and  _82
REMARK   38  A    between atoms: _85  and  _87
REMARK   39  A    between atoms: _87  and  _88
REMARK   40  A    between atoms: _91  and  _93
REMARK   41  A    between atoms: _93  and  _94
REMARK   42  A    between atoms: _93  and  _96
REMARK   43  A    between atoms: _96  and  _97
REMARK   44  A    between atoms: _100  and  _102
REMARK   45  A    between atoms: _102  and  _103
REMARK   46  A    between atoms: _102  and  _105
REMARK   47  A    between atoms: _105  and  _106
REMARK   48  A    between atoms: _109  and  _111
REMARK   49  A    between atoms: _111  and  _112
REMARK   50  A    between atoms: _111  and  _114
REMARK   51  A    between atoms: _114  and  _115
REMARK   52  A    between atoms: _115  and  _116
REMARK   53  A    between atoms: _116  and  _117
REMARK   54  A    between atoms: _117  and  _118
REMARK   55  A    between atoms: _122  and  _124
REMARK   56  A    between atoms: _124  and  _125
REMARK   57  A    between atoms: _124  and  _127
REMARK   58  A    between atoms: _127  and  _128
REMARK   59  A    between atoms: _131  and  _133
REMARK   60  A    between atoms: _133  and  _134
REMARK   61  A    between atoms: _133  and  _136
REMARK   62  A    between atoms: _136  and  _137
REMARK   63  A    between atoms: _140  and  _142
REMARK   64  A    between atoms: _142  and  _143
REMARK   65  A    between atoms: _142  and  _145
REMARK   66  A    between atoms: _145  and  _146
REMARK   67  A    between atoms: _149  and  _151
REMARK   68  A    between atoms: _151  and  _152
REMARK   69  A    between atoms: _151  and  _154
REMARK   70  A    between atoms: _157  and  _159
REMARK   71  A    between atoms: _159  and  _160
REMARK   72  A    between atoms: _159  and  _162
REMARK   73  A    between atoms: _162  and  _163
REMARK   74  A    between atoms: _166  and  _168
REMARK   75  A    between atoms: _168  and  _169
REMARK   76  A    between atoms: _168  and  _171
REMARK   77  A    between atoms: _171  and  _172
REMARK   78  A    between atoms: _175  and  _177
REMARK   79  A    between atoms: _177  and  _178
REMARK   80  A    between atoms: _180  and  _182
REMARK   81  A    between atoms: _182  and  _183
REMARK   82  A    between atoms: _182  and  _185
REMARK   83  A    between atoms: _185  and  _186
REMARK   84  A    between atoms: _189  and  _191
REMARK   85  A    between atoms: _191  and  _192
REMARK   86  A    between atoms: _194  and  _196
REMARK   87  A    between atoms: _196  and  _197
REMARK   88  A    between atoms: _196  and  _199
REMARK   89  A    between atoms: _199  and  _200
REMARK   90  A    between atoms: _200  and  _201
REMARK   91  A    between atoms: _203  and  _205
REMARK   92  A    between atoms: _205  and  _206
REMARK   93  A    between atoms: _205  and  _208
REMARK   94  A    between atoms: _208  and  _209
REMARK   95  A    between atoms: _212  and  _214
REMARK   96  A    between atoms: _214  and  _215
REMARK   97  A    between atoms: _214  and  _217
REMARK   98  A    between atoms: _217  and  _218
REMARK   99  A    between atoms: _221  and  _223
REMARK  100  A    between atoms: _223  and  _224
REMARK  101  A    between atoms: _223  and  _226
REMARK  102  A    between atoms: _226  and  _227
REMARK  103  A    between atoms: _230  and  _232
REMARK  104  A    between atoms: _232  and  _233
REMARK  105  A    between atoms: _232  and  _235
REMARK  106  A    between atoms: _235  and  _236
REMARK  107  A    between atoms: _241  and  _243
REMARK  108  A    between atoms: _243  and  _244
REMARK  109  A    between atoms: _243  and  _246
REMARK  110  A    between atoms: _246  and  _247
REMARK  111  A    between atoms: _252  and  _254
REMARK  112  A    between atoms: _254  and  _255
REMARK  113  A    between atoms: _254  and  _257
REMARK  114  A    between atoms: _257  and  _258
REMARK  115  A    between atoms: _261  and  _263
REMARK  116  A    between atoms: _263  and  _264
REMARK  117  A    between atoms: _263  and  _266
REMARK  118  A    between atoms: _266  and  _267
REMARK  119  A    between atoms: _270  and  _272
REMARK  120  A    between atoms: _272  and  _273
REMARK  121  A    between atoms: _272  and  _275
REMARK  122  A    between atoms: _275  and  _276
REMARK  123  A    between atoms: _279  and  _281
REMARK  124  A    between atoms: _281  and  _282
REMARK  125  A    between atoms: _285  and  _287
REMARK  126  A    between atoms: _287  and  _288
REMARK  127  A    between atoms: _287  and  _290
REMARK  128  A    between atoms: _290  and  _291
REMARK  129  A    between atoms: _291  and  _292
REMARK  130  A    between atoms: _292  and  _293
REMARK  131  A    between atoms: _293  and  _294
REMARK  132  A    between atoms: _298  and  _300
REMARK  133  A    between atoms: _300  and  _301
REMARK  134  A    between atoms: _300  and  _303
REMARK  135  A    between atoms: _303  and  _304
REMARK  136  A    between atoms: _306  and  _308
REMARK  137  A    between atoms: _308  and  _309
REMARK  138  A    between atoms: _311  and  _313
REMARK  139  A    between atoms: _313  and  _314
REMARK  140  A    between atoms: _313  and  _316
REMARK  141  A    between atoms: _316  and  _317
REMARK  142  A    between atoms: _323  and  _325
REMARK  143  A    between atoms: _325  and  _326
REMARK  144  A    between atoms: _328  and  _330
REMARK  145  A    between atoms: _330  and  _331
REMARK  146  A    between atoms: _330  and  _333
REMARK  147  A    between atoms: _336  and  _338
REMARK  148  A    between atoms: _338  and  _339
REMARK  149  A    between atoms: _341  and  _343
REMARK  150  A    between atoms: _343  and  _344
REMARK  151  A    between atoms: _343  and  _346
REMARK  152  A    between atoms: _346  and  _347
REMARK  153  A    between atoms: _353  and  _355
REMARK  154  A    between atoms: _355  and  _356
REMARK  155  A    between atoms: _355  and  _358
REMARK  156  A    between atoms: _358  and  _359
REMARK  157  A    between atoms: _364  and  _365
REMARK  158  A    between atoms: _367  and  _369
REMARK  159  A    between atoms: _369  and  _370
REMARK  160  A    between atoms: _373  and  _375
REMARK  161  A    between atoms: _375  and  _376
REMARK  162  A    between atoms: _375  and  _378
REMARK  163  A    between atoms: _378  and  _379
REMARK  164  A    between atoms: _384  and  _385
REMARK  165  A    between atoms: _387  and  _389
REMARK  166  A    between atoms: _389  and  _390
REMARK  167  A    between atoms: _389  and  _392
REMARK  168  A    between atoms: _395  and  _397
REMARK  169  A    between atoms: _397  and  _398
REMARK  170  A    between atoms: _397  and  _400
REMARK  171  A    between atoms: _400  and  _401
REMARK  172  A    between atoms: _404  and  _406
REMARK  173  A    between atoms: _406  and  _407
REMARK  174  A    between atoms: _406  and  _409
REMARK  175  A    between atoms: _412  and  _414
REMARK  176  A    between atoms: _414  and  _415
REMARK  177  A    between atoms: _414  and  _417
REMARK  178  A    between atoms: _417  and  _418
REMARK  179  A    between atoms: _421  and  _423
REMARK  180  A    between atoms: _423  and  _424
REMARK  181  A    between atoms: _423  and  _426
REMARK  182  A    between atoms: _426  and  _427
REMARK  183  A    between atoms: _430  and  _432
REMARK  184  A    between atoms: _432  and  _433
REMARK  185  A    between atoms: _432  and  _435
REMARK  186  A    between atoms: _435  and  _436
REMARK  187  A    between atoms: _436  and  _437
REMARK  188  A    between atoms: _437  and  _438
REMARK  189  A    between atoms: _438  and  _439
REMARK  190  A    between atoms: _443  and  _445
REMARK  191  A    between atoms: _445  and  _446
REMARK  192  A    between atoms: _445  and  _448
REMARK  193  A    between atoms: _448  and  _449
REMARK  194  A    between atoms: _454  and  _456
REMARK  195  A    between atoms: _456  and  _457
REMARK  196  A    between atoms: _456  and  _459
REMARK  197  A    between atoms: _459  and  _460
REMARK  198  A    between atoms: _470  and  _472
REMARK  199  A    between atoms: _472  and  _473
REMARK  200  A    between atoms: _472  and  _475
REMARK  201  A    between atoms: _475  and  _476
REMARK  202  A    between atoms: _476  and  _477
REMARK  203  A    between atoms: _479  and  _481
REMARK  204  A    between atoms: _481  and  _482
REMARK  205  A    between atoms: _481  and  _484
REMARK  206  A    between atoms: _484  and  _485
REMARK  207  A    between atoms: _485  and  _486
REMARK  208  A    between atoms: _486  and  _487
REMARK  209  A    between atoms: _496  and  _498
REMARK  210  A    between atoms: _498  and  _499
REMARK  211  A    between atoms: _501  and  _503
REMARK  212  A    between atoms: _503  and  _504
REMARK  213  A    between atoms: _503  and  _506
REMARK  214  A    between atoms: _506  and  _507
REMARK  215  A    between atoms: _510  and  _512
REMARK  216  A    between atoms: _512  and  _513
REMARK  217  A    between atoms: _512  and  _515
REMARK  218  A    between atoms: _515  and  _516
REMARK  219  A    between atoms: _516  and  _517
REMARK  220  A    between atoms: _517  and  _518
REMARK  221  A    between atoms: _518  and  _519
REMARK  222  A    between atoms: _523  and  _525
REMARK  223  A    between atoms: _525  and  _526
REMARK  224  A    between atoms: _525  and  _528
REMARK  225  A    between atoms: _531  and  _533
REMARK  226  A    between atoms: _533  and  _534
REMARK  227  A    between atoms: _533  and  _536
REMARK  228  A    between atoms: _536  and  _537
REMARK  229  A    between atoms: _540  and  _542
REMARK  230  A    between atoms: _542  and  _543
REMARK  231  A    between atoms: _542  and  _545
REMARK  232  A    between atoms: _545  and  _546
REMARK                            x       y       z     vdW  Elec       q    Type
REMARK                         _______ _______ _______ _____ _____    ______ ____
ROOT
ATOM      1  CA  ILE A   1     -11.392  31.339  -0.413  0.00  0.00    +0.133 C 
ENDROOT
BRANCH   1   2
ATOM      2  N   ILE A   1     -12.368  32.016  -1.270  0.00  0.00    -0.239 NA
ATOM      3  H   ILE A   1     -13.178  32.501  -0.834  0.00  0.00    +0.142 HD
ENDBRANCH   1   2
BRANCH   1   4
ATOM      4  CB  ILE A   1     -10.697  32.374   0.520  0.00  0.00    +0.023 C 
ATOM      5  CG2 ILE A   1      -9.726  31.614   1.518  0.00  0.00    +0.002 C 
BRANCH   4   6
ATOM      6  CG1 ILE A   1     -10.084  33.467  -0.340  0.00  0.00    +0.002 C 
ATOM      7  CD1 ILE A   1      -9.544  34.665   0.501  0.00  0.00    +0.000 C 
ENDBRANCH   4   6
ENDBRANCH   1   4
BRANCH   1   8
ATOM      8  C   ILE A   1     -12.144  30.332   0.481  0.00  0.00    +0.224 C 
ATOM      9  O   ILE A   1     -13.099  30.685   1.172  0.00  0.00    -0.287 OA
ENDBRANCH   1   8
TORSDOF 4
REMARK  Name = ../refined-set-2016/1yc1/1yc1_pocket.pdb
REMARK  232 active torsions:
REMARK  status: ('A' for Active; 'I' for Inactive)
REMARK    1  A    between atoms: _1  and  _3
REMARK    2  A    between atoms: _3  and  _4
REMARK    3  A    between atoms: _3  and  _6
REMARK    4  A    between atoms: _6  and  _7
REMARK    5  A    between atoms: _13  and  _15
REMARK    6  A    between atoms: _15  and  _16
REMARK    7  A    between atoms: _15  and  _18
REMARK    8  A    between atoms: _18  and  _19
REMARK    9  A    between atoms: _19  and  _20
REMARK   10  A    between atoms: _23  and  _25
REMARK   11  A    between atoms: _25  and  _26
REMARK   12  A    between atoms: _25  and  _28
REMARK   13  A    between atoms: _28  and  _29
REMARK   14  A    between atoms: _32  and  _34
REMARK   15  A    between atoms: _34  and  _35
REMARK   16  A    between atoms: _34  and  _37
REMARK   17  A    between atoms: _37  and  _38
REMARK   18  A    between atoms: _41  and  _43
REMARK   19  A    between atoms: _43  and  _44
REMARK   20  A    between atoms: _43  and  _46
REMARK   21  A    between atoms: _46  and  _47
REMARK   22  A    between atoms: _49  and  _51
REMARK   23  A    between atoms: _51  and  _52
REMARK   24  A    between atoms: _51  and  _54
REMARK   25  A    between atoms: _54  and  _55
REMARK   26  A    between atoms: _60  and  _62
REMARK   27  A    between atoms: _62  and  _63
REMARK   28  A    between atoms: _62  and  _65
REMARK   29  A    between atoms: _65  and  _66
REMARK   30  A    between atoms: _68  and  _70
REMARK   31  A    between atoms: _70  and  _71
REMARK   32  A    between atoms: _70  and  _73
REMARK   33  A    between atoms: _73  and  _74
REMARK   34  A    between atoms: _76  and  _78
REMARK   35  A    between atoms: _78  and  _79
REMARK   36  A    between atoms: _78  and  _81
REMARK   37  A    between atoms: _81  and  _82
REMARK   38  A    between atoms: _85  and  _87
REMARK   39  A    between atoms: _87  and  _88
REMARK   40  A    between atoms: _91  and  _93
REMARK   41  A    between atoms: _93  and  _94
REMARK   42  A    between atoms: _93  and  _96
REMARK   43  A    between atoms: _96  and  _97
REMARK   44  A    between atoms: _100  and  _102
REMARK   45  A    between atoms: _102  and  _103
REMARK   46  A    between atoms: _102  and  _105
REMARK   47  A    between atoms: _105  and  _106
REMARK   48  A    between atoms: _109  and  _111
REMARK   49  A    between atoms: _111  and  _112
REMARK   50  A    between atoms: _111  and  _114
REMARK   51  A    between atoms: _114  and  _115
REMARK   52  A    between atoms: _115  and  _116
REMARK   53  A    between atoms: _116  and  _117
REMARK   54  A    between atoms: _117  and  _118
REMARK   55  A    between atoms: _122  and  _124
REMARK   56  A    between atoms: _124  and  _125
REMARK   57  A    between atoms: _124  and  _127
REMARK   58  A    between atoms: _127  and  _128
REMARK   59  A    between atoms: _131  and  _133
REMARK   60  A    between atoms: _133  and  _134
REMARK   61  A    between atoms: _133  and  _136
REMARK   62  A    between atoms: _136  and  _137
REMARK   63  A    between atoms: _140  and  _142
REMARK   64  A    between atoms: _142  and  _143
REMARK   65  A    between atoms: _142  and  _145
REMARK   66  A    between atoms: _145  and  _146
REMARK   67  A    between atoms: _149  and  _151
REMARK   68  A    between atoms: _151  and  _152
REMARK   69  A    between atoms: _151  and  _154
REMARK   70  A    between atoms: _157  and  _159
REMARK   71  A    between atoms: _159  and  _160
REMARK   72  A    between atoms: _159  and  _162
REMARK   73  A    between atoms: _162  and  _163
REMARK   74  A    between atoms: _166  and  _168
REMARK   75  A    between atoms: _168  and  _169
REMARK   76  A    between atoms: _168  and  _171
REMARK   77  A    between atoms: _171  and  _172
REMARK   78  A    between atoms: _175  and  _177
REMARK   79  A    between atoms: _177  and  _178
REMARK   80  A    between atoms: _180  and  _182
REMARK   81  A    between atoms: _182  and  _183
REMARK   82  A    between atoms: _182  and  _185
REMARK   83  A    between atoms: _185  and  _186
REMARK   84  A    between atoms: _189  and  _191
REMARK   85  A    between atoms: _191  and  _192
REMARK   86  A    between atoms: _194  and  _196
REMARK   87  A    between atoms: _196  and  _197
REMARK   88  A    between atoms: _196  and  _199
REMARK   89  A    between atoms: _199  and  _200
REMARK   90  A    between atoms: _200  and  _201
REMARK   91  A    between atoms: _203  and  _205
REMARK   92  A    between atoms: _205  and  _206
REMARK   93  A    between atoms: _205  and  _208
REMARK   94  A    between atoms: _208  and  _209
REMARK   95  A    between atoms: _212  and  _214
REMARK   96  A    between atoms: _214  and  _215
REMARK   97  A    between atoms: _214  and  _217
REMARK   98  A    between atoms: _217  and  _218
REMARK   99  A    between atoms: _221  and  _223
REMARK  100  A    between atoms: _223  and  _224
REMARK  101  A    between atoms: _223  and  _226
REMARK  102  A    between atoms: _226  and  _227
REMARK  103  A    between atoms: _230  and  _232
REMARK  104  A    between atoms: _232  and  _233
REMARK  105  A    between atoms: _232  and  _235
REMARK  106  A    between atoms: _235  and  _236
REMARK  107  A    between atoms: _241  and  _243
REMARK  108  A    between atoms: _243  and  _244
REMARK  109  A    between atoms: _243  and  _246
REMARK  110  A    between atoms: _246  and  _247
REMARK  111  A    between atoms: _252  and  _254
REMARK  112  A    between atoms: _254  and  _255
REMARK  113  A    between atoms: _254  and  _257
REMARK  114  A    between atoms: _257  and  _258
REMARK  115  A    between atoms: _261  and  _263
REMARK  116  A    between atoms: _263  and  _264
REMARK  117  A    between atoms: _263  and  _266
REMARK  118  A    between atoms: _266  and  _267
REMARK  119  A    between atoms: _270  and  _272
REMARK  120  A    between atoms: _272  and  _273
REMARK  121  A    between atoms: _272  and  _275
REMARK  122  A    between atoms: _275  and  _276
REMARK  123  A    between atoms: _279  and  _281
REMARK  124  A    between atoms: _281  and  _282
REMARK  125  A    between atoms: _285  and  _287
REMARK  126  A    between atoms: _287  and  _288
REMARK  127  A    between atoms: _287  and  _290
REMARK  128  A    between atoms: _290  and  _291
REMARK  129  A    between atoms: _291  and  _292
REMARK  130  A    between atoms: _292  and  _293
REMARK  131  A    between atoms: _293  and  _294
REMARK  132  A    between atoms: _298  and  _300
REMARK  133  A    between atoms: _300  and  _301
REMARK  134  A    between atoms: _300  and  _303
REMARK  135  A    between atoms: _303  and  _304
REMARK  136  A    between atoms: _306  and  _308
REMARK  137  A    between atoms: _308  and  _309
REMARK  138  A    between atoms: _311  and  _313
REMARK  139  A    between atoms: _313  and  _314
REMARK  140  A    between atoms: _313  and  _316
REMARK  141  A    between atoms: _316  and  _317
REMARK  142  A    between atoms: _323  and  _325
REMARK  143  A    between atoms: _325  and  _326
REMARK  144  A    between atoms: _328  and  _330
REMARK  145  A    between atoms: _330  and  _331
REMARK  146  A    between atoms: _330  and  _333
REMARK  147  A    between atoms: _336  and  _338
REMARK  148  A    between atoms: _338  and  _339
REMARK  149  A    between atoms: _341  and  _343
REMARK  150  A    between atoms: _343  and  _344
REMARK  151  A    between atoms: _343  and  _346
REMARK  152  A    between atoms: _346  and  _347
REMARK  153  A    between atoms: _353  and  _355
REMARK  154  A    between atoms: _355  and  _356
REMARK  155  A    between atoms: _355  and  _358
REMARK  156  A    between atoms: _358  and  _359
REMARK  157  A    between atoms: _364  and  _365
REMARK  158  A    between atoms: _367  and  _369
REMARK  159  A    between atoms: _369  and  _370
REMARK  160  A    between atoms: _373  and  _375
REMARK  161  A    between atoms: _375  and  _376
REMARK  162  A    between atoms: _375  and  _378
REMARK  163  A    between atoms: _378  and  _379
REMARK  164  A    between atoms: _384  and  _385
REMARK  165  A    between atoms: _387  and  _389
REMARK  166  A    between atoms: _389  and  _390
REMARK  167  A    between atoms: _389  and  _392
REMARK  168  A    between atoms: _395  and  _397
REMARK  169  A    between atoms: _397  and  _398
REMARK  170  A    between atoms: _397  and  _400
REMARK  171  A    between atoms: _400  and  _401
REMARK  172  A    between atoms: _404  and  _406
REMARK  173  A    between atoms: _406  and  _407
REMARK  174  A    between atoms: _406  and  _409
REMARK  175  A    between atoms: _412  and  _414
REMARK  176  A    between atoms: _414  and  _415
REMARK  177  A    between atoms: _414  and  _417
REMARK  178  A    between atoms: _417  and  _418
REMARK  179  A    between atoms: _421  and  _423
REMARK  180  A    between atoms: _423  and  _424
REMARK  181  A    between atoms: _423  and  _426
REMARK  182  A    between atoms: _426  and  _427
REMARK  183  A    between atoms: _430  and  _432
REMARK  184  A    between atoms: _432  and  _433
REMARK  185  A    between atoms: _432  and  _435
REMARK  186  A    between atoms: _435  and  _436
REMARK  187  A    between atoms: _436  and  _437
REMARK  188  A    between atoms: _437  and  _438
REMARK  189  A    between atoms: _438  and  _439
REMARK  190  A    between atoms: _443  and  _445
REMARK  191  A    between atoms: _445  and  _446
REMARK  192  A    between atoms: _445  and  _448
REMARK  193  A    between atoms: _448  and  _449
REMARK  194  A    between atoms: _454  and  _456
REMARK  195  A    between atoms: _456  and  _457
REMARK  196  A    between atoms: _456  and  _459
REMARK  197  A    between atoms: _459  and  _460
REMARK  198  A    between atoms: _470  and  _472
REMARK  199  A    between atoms: _472  and  _473
REMARK  200  A    between atoms: _472  and  _475
REMARK  201  A    between atoms: _475  and  _476
REMARK  202  A    between atoms: _476  and  _477
REMARK  203  A    between atoms: _479  and  _481
REMARK  204  A    between atoms: _481  and  _482
REMARK  205  A    between atoms: _481  and  _484
REMARK  206  A    between atoms: _484  and  _485
REMARK  207  A    between atoms: _485  and  _486
REMARK  208  A    between atoms: _486  and  _487
REMARK  209  A    between atoms: _496  and  _498
REMARK  210  A    between atoms: _498  and  _499
REMARK  211  A    between atoms: _501  and  _503
REMARK  212  A    between atoms: _503  and  _504
REMARK  213  A    between atoms: _503  and  _506
REMARK  214  A    between atoms: _506  and  _507
REMARK  215  A    between atoms: _510  and  _512
REMARK  216  A    between atoms: _512  and  _513
REMARK  217  A    between atoms: _512  and  _515
REMARK  218  A    between atoms: _515  and  _516
REMARK  219  A    between atoms: _516  and  _517
REMARK  220  A    between atoms: _517  and  _518
REMARK  221  A    between atoms: _518  and  _519
REMARK  222  A    between atoms: _523  and  _525
REMARK  223  A    between atoms: _525  and  _526
REMARK  224  A    between atoms: _525  and  _528
REMARK  225  A    between atoms: _531  and  _533
REMARK  226  A    between atoms: _533  and  _534
REMARK  227  A    between atoms: _533  and  _536
REMARK  228  A    between atoms: _536  and  _537
REMARK  229  A    between atoms: _540  and  _542
REMARK  230  A    between atoms: _542  and  _543
REMARK  231  A    between atoms: _542  and  _545
REMARK  232  A    between atoms: _545  and  _546
REMARK                            x       y       z     vdW  Elec       q    Type
REMARK                         _______ _______ _______ _____ _____    ______ ____
ROOT
ATOM      1  C   THR A   4      -8.767  31.762  -7.595  0.00  0.00    +0.243 C 
ATOM      2  N   GLY A   5      -7.674  32.224  -7.003  0.00  0.00    -0.295 N 
ATOM      3  H   GLY A   5      -7.330  31.774  -6.131  0.00  0.00    +0.150 HD
ATOM      4  O   THR A   4      -9.268  32.339  -8.592  0.00  0.00    -0.273 OA
ENDROOT
BRANCH   2   5
ATOM      5  CA  GLY A   5      -6.962  33.340  -7.556  0.00  0.00    +0.176 C 
BRANCH   5   6
ATOM      6  C   GLY A   5      -6.155  33.004  -8.803  0.00  0.00    +0.243 C 
ATOM      7  N   ILE A   6      -5.251  33.906  -9.139  0.00  0.00    -0.297 N 
ATOM      8  H   ILE A   6      -5.091  34.732  -8.528  0.00  0.00    +0.150 HD
ATOM      9  O   GLY A   5      -6.337  31.953  -9.433  0.00  0.00    -0.273 OA
BRANCH   7  10
ATOM     10  CA  ILE A   6      -4.480  33.749 -10.357  0.00  0.00    +0.149 C 
BRANCH  10  11
ATOM     11  C   ILE A   6      -3.534  32.557 -10.414  0.00  0.00    +0.241 C 
ATOM     12  N   GLY A   7      -3.169  32.008  -9.244  0.00  0.00    -0.295 N 
ATOM     13  H   GLY A   7      -3.533  32.387  -8.347  0.00  0.00    +0.150 HD
ATOM     14  O   ILE A   6      -3.166  32.061 -11.519  0.00  0.00    -0.273 OA
BRANCH  12  15
ATOM     15  CA  GLY A   7      -2.264  30.885  -9.251  0.00  0.00    +0.176 C 
BRANCH  15  16
ATOM     16  C   GLY A   7      -0.846  31.358  -9.565  0.00  0.00    +0.243 C 
ATOM     17  O   GLY A   7      -0.595  32.530  -9.643  0.00  0.00    -0.273 OA
ATOM     18  N   MET A   8       0.068  30.421  -9.673  0.00  0.00    -0.297 N 
ATOM     19  H   MET A   8      -0.219  29.435  -9.511  0.00  0.00    +0.150 HD
BRANCH  18  20
ATOM     20  CA  MET A   8       1.446  30.682 -10.003  0.00  0.00    +0.149 C 
BRANCH  20  21
ATOM     21  C   MET A   8       2.001  29.692 -11.025  0.00  0.00    +0.241 C 
ATOM     22  O   MET A   8       1.757  28.515 -10.964  0.00  0.00    -0.273 OA
ATOM     23  N   THR A   9       2.746  30.221 -12.001  0.00  0.00    -0.296 N 
ATOM     24  H   THR A   9       2.796  31.254 -12.106  0.00  0.00    +0.150 HD
BRANCH  23  25
ATOM     25  CA  THR A   9       3.487  29.370 -12.916  0.00  0.00    +0.164 C 
BRANCH  25  26
ATOM     26  C   THR A   9       4.615  28.734 -12.103  0.00  0.00    +0.229 C 
ATOM     27  O   THR A   9       4.895  29.171 -10.973  0.00  0.00    -0.286 OA
ENDBRANCH  25  26
BRANCH  25  28
ATOM     28  CB  THR A   9       4.192  30.198 -14.011  0.00  0.00    +0.136 C 
ATOM     29  CG2 THR A   9       3.147  30.956 -14.836  0.00  0.00    +0.034 C 
BRANCH  28  30
ATOM     30  OG1 THR A   9       5.078  31.146 -13.386  0.00  0.00    -0.382 OA
ATOM     31  HG1 THR A   9       5.533  31.680 -14.084  0.00  0.00    +0.210 HD
ENDBRANCH  28  30
ENDBRANCH  25  28
ENDBRANCH  23  25
ENDBRANCH  20  21
BRANCH  20  32
ATOM     32  CB  MET A   8       2.319  30.594  -8.741  0.00  0.00    +0.041 C 
BRANCH  32  33
ATOM     33  CG  MET A   8       1.976  31.689  -7.743  0.00  0.00    +0.060 C 
BRANCH  33  34
ATOM     34  SD  MET A   8       2.970  31.462  -6.223  0.00  0.00    -0.139 S 
ATOM     35  CE  MET A   8       1.836  30.364  -5.308  0.00  0.00    +0.069 C 
ENDBRANCH  33  34
ENDBRANCH  32  33
ENDBRANCH  20  32
ENDBRANCH  18  20
ENDBRANCH  15  16
ENDBRANCH  12  15
ENDBRANCH  10  11
BRANCH  10  36
ATOM     36  CB  ILE A   6      -3.757  35.095 -10.682  0.00  0.00    +0.027 C 
ATOM     37  CG2 ILE A   6      -2.495  35.275  -9.811  0.00  0.00    +0.002 C 
BRANCH  36  38
ATOM     38  CG1 ILE A   6      -3.384  35.124 -12.169  0.00  0.00    +0.002 C 
ATOM     39  CD1 ILE A   6      -2.690  36.426 -12.566  0.00  0.00    +0.000 C 
ENDBRANCH  36  38
ENDBRANCH  10  36
ENDBRANCH   7  10
ENDBRANCH   5   6
ENDBRANCH   2   5
BRANCH   1  40
ATOM     40  CA  THR A   4      -9.365  30.530  -6.939  0.00  0.00    +0.176 C 
BRANCH  40  43
ATOM     41  C   ASP A   3      -8.414  29.895  -4.795  0.00  0.00    +0.241 C 
ATOM     42  O   ASP A   3      -7.721  29.000  -5.333  0.00  0.00    -0.273 OA
ATOM     43  N   THR A   4      -9.285  30.650  -5.491  0.00  0.00    -0.295 N 
ATOM     44  H   THR A   4      -9.903  31.321  -4.992  0.00  0.00    +0.150 HD
BRANCH  41  45
ATOM     45  CA  ASP A   3      -8.386  30.130  -3.295  0.00  0.00    +0.160 C 
BRANCH  45  48
ATOM     46  C   VAL A   2      -8.447  28.401  -1.618  0.00  0.00    +0.241 C 
ATOM     47  O   VAL A   2      -9.393  28.937  -1.046  0.00  0.00    -0.273 OA
ATOM     48  N   ASP A   3      -7.798  28.945  -2.651  0.00  0.00    -0.297 N 
ATOM     49  H   ASP A   3      -6.902  28.542  -2.991  0.00  0.00    +0.150 HD
BRANCH  46  50
ATOM     50  CA  VAL A   2      -7.893  27.121  -1.028  0.00  0.00    +0.148 C 
BRANCH  50  52
ATOM     51  C   ILE A   1      -6.639  27.171   1.049  0.00  0.00    +0.238 C 
ATOM     52  N   VAL A   2      -7.824  27.221   0.427  0.00  0.00    -0.297 N 
ATOM     53  H   VAL A   2      -8.697  27.331   0.982  0.00  0.00    +0.150 HD
ATOM     54  O   ILE A   1      -5.575  27.095   0.426  0.00  0.00    -0.274 OA
BRANCH  51  55
ATOM     55  CA  ILE A   1      -6.684  27.201   2.559  0.00  0.00    +0.145 C 
BRANCH  55  56
ATOM     56  N   ILE A   1      -6.116  25.884   2.964  0.00  0.00    -0.238 NA
ATOM     57  H   ILE A   1      -5.134  25.655   2.708  0.00  0.00    +0.142 HD
ENDBRANCH  55  56
BRANCH  55  58
ATOM     58  CB  ILE A   1      -5.830  28.368   3.050  0.00  0.00    +0.025 C 
ATOM     59  CG2 ILE A   1      -6.449  29.661   2.548  0.00  0.00    +0.002 C 
BRANCH  58  60
ATOM     60  CG1 ILE A   1      -5.763  28.443   4.577  0.00  0.00    +0.002 C 
ATOM     61  CD1 ILE A   1      -4.723  27.528   5.183  0.00  0.00    +0.000 C 
ENDBRANCH  58  60
ENDBRANCH  55  58
ENDBRANCH  51  55
ENDBRANCH  50  52
BRANCH  50  62
ATOM     62  CB  VAL A   2      -8.902  26.007  -1.456  0.00  0.00    +0.027 C 
ATOM     63  CG2 VAL A   2      -8.478  24.672  -0.869  0.00  0.00    +0.002 C 
ATOM     64  CG1 VAL A   2      -8.976  26.019  -3.005  0.00  0.00    +0.002 C 
ENDBRANCH  50  62
ENDBRANCH  46  50
ENDBRANCH  45  48
BRANCH  45  65
ATOM     65  CB  ASP A   3      -7.580  31.436  -2.979  0.00  0.00    +0.143 C 
BRANCH  65  66
ATOM     66  CG  ASP A   3      -6.198  31.412  -3.550  0.00  0.00    +0.367 C 
ATOM     67  OD2 ASP A   3      -5.207  31.452  -2.748  0.00  0.00    -0.246 OA
ATOM     68  OD1 ASP A   3      -6.046  31.440  -4.781  0.00  0.00    -0.246 OA
ENDBRANCH  65  66
ENDBRANCH  45  65
ENDBRANCH  41  45
ENDBRANCH  40  43
BRANCH  40  69
ATOM     69  CB  THR A   4     -10.847  30.285  -7.320  0.00  0.00    +0.137 C 
ATOM     70  CG2 THR A   4     -11.264  28.912  -6.867  0.00  0.00    +0.034 C 
BRANCH  69  71
ATOM     71  OG1 THR A   4     -11.666  31.297  -6.704  0.00  0.00    -0.382 OA
ATOM     72  HG1 THR A   4     -12.614  31.144  -6.945  0.00  0.00    +0.210 HD
ENDBRANCH  69  71
ENDBRANCH  40  69
ENDBRANCH   1  40
TORSDOF 32
REMARK  Name = ../refined-set-2016/1yc1/1yc1_pocket.pdb
REMARK  232 active torsions:
REMARK  status: ('A' for Active; 'I' for Inactive)
REMARK    1  A    between atoms: _1  and  _3
REMARK    2  A    between atoms: _3  and  _4
REMARK    3  A    between atoms: _3  and  _6
REMARK    4  A    between atoms: _6  and  _7
REMARK    5  A    between atoms: _13  and  _15
REMARK    6  A    between atoms: _15  and  _16
REMARK    7  A    between atoms: _15  and  _18
REMARK    8  A    between atoms: _18  and  _19
REMARK    9  A    between atoms: _19  and  _20
REMARK   10  A    between atoms: _23  and  _25
REMARK   11  A    between atoms: _25  and  _26
REMARK   12  A    between atoms: _25  and  _28
REMARK   13  A    between atoms: _28  and  _29
REMARK   14  A    between atoms: _32  and  _34
REMARK   15  A    between atoms: _34  and  _35
REMARK   16  A    between atoms: _34  and  _37
REMARK   17  A    between atoms: _37  and  _38
REMARK   18  A    between atoms: _41  and  _43
REMARK   19  A    between atoms: _43  and  _44
REMARK   20  A    between atoms: _43  and  _46
REMARK   21  A    between atoms: _46  and  _47
REMARK   22  A    between atoms: _49  and  _51
REMARK   23  A    between atoms: _51  and  _52
REMARK   24  A    between atoms: _51  and  _54
REMARK   25  A    between atoms: _54  and  _55
REMARK   26  A    between atoms: _60  and  _62
REMARK   27  A    between atoms: _62  and  _63
REMARK   28  A    between atoms: _62  and  _65
REMARK   29  A    between atoms: _65  and  _66
REMARK   30  A    between atoms: _68  and  _70
REMARK   31  A    between atoms: _70  and  _71
REMARK   32  A    between atoms: _70  and  _73
REMARK   33  A    between atoms: _73  and  _74
REMARK   34  A    between atoms: _76  and  _78
REMARK   35  A    between atoms: _78  and  _79
REMARK   36  A    between atoms: _78  and  _81
REMARK   37  A    between atoms: _81  and  _82
REMARK   38  A    between atoms: _85  and  _87
REMARK   39  A    between atoms: _87  and  _88
REMARK   40  A    between atoms: _91  and  _93
REMARK   41  A    between atoms: _93  and  _94
REMARK   42  A    between atoms: _93  and  _96
REMARK   43  A    between atoms: _96  and  _97
REMARK   44  A    between atoms: _100  and  _102
REMARK   45  A    between atoms: _102  and  _103
REMARK   46  A    between atoms: _102  and  _105
REMARK   47  A    between atoms: _105  and  _106
REMARK   48  A    between atoms: _109  and  _111
REMARK   49  A    between atoms: _111  and  _112
REMARK   50  A    between atoms: _111  and  _114
REMARK   51  A    between atoms: _114  and  _115
REMARK   52  A    between atoms: _115  and  _116
REMARK   53  A    between atoms: _116  and  _117
REMARK   54  A    between atoms: _117  and  _118
REMARK   55  A    between atoms: _122  and  _124
REMARK   56  A    between atoms: _124  and  _125
REMARK   57  A    between atoms: _124  and  _127
REMARK   58  A    between atoms: _127  and  _128
REMARK   59  A    between atoms: _131  and  _133
REMARK   60  A    between atoms: _133  and  _134
REMARK   61  A    between atoms: _133  and  _136
REMARK   62  A    between atoms: _136  and  _137
REMARK   63  A    between atoms: _140  and  _142
REMARK   64  A    between atoms: _142  and  _143
REMARK   65  A    between atoms: _142  and  _145
REMARK   66  A    between atoms: _145  and  _146
REMARK   67  A    between atoms: _149  and  _151
REMARK   68  A    between atoms: _151  and  _152
REMARK   69  A    between atoms: _151  and  _154
REMARK   70  A    between atoms: _157  and  _159
REMARK   71  A    between atoms: _159  and  _160
REMARK   72  A    between atoms: _159  and  _162
REMARK   73  A    between atoms: _162  and  _163
REMARK   74  A    between atoms: _166  and  _168
REMARK   75  A    between atoms: _168  and  _169
REMARK   76  A    between atoms: _168  and  _171
REMARK   77  A    between atoms: _171  and  _172
REMARK   78  A    between atoms: _175  and  _177
REMARK   79  A    between atoms: _177  and  _178
REMARK   80  A    between atoms: _180  and  _182
REMARK   81  A    between atoms: _182  and  _183
REMARK   82  A    between atoms: _182  and  _185
REMARK   83  A    between atoms: _185  and  _186
REMARK   84  A    between atoms: _189  and  _191
REMARK   85  A    between atoms: _191  and  _192
REMARK   86  A    between atoms: _194  and  _196
REMARK   87  A    between atoms: _196  and  _197
REMARK   88  A    between atoms: _196  and  _199
REMARK   89  A    between atoms: _199  and  _200
REMARK   90  A    between atoms: _200  and  _201
REMARK   91  A    between atoms: _203  and  _205
REMARK   92  A    between atoms: _205  and  _206
REMARK   93  A    between atoms: _205  and  _208
REMARK   94  A    between atoms: _208  and  _209
REMARK   95  A    between atoms: _212  and  _214
REMARK   96  A    between atoms: _214  and  _215
REMARK   97  A    between atoms: _214  and  _217
REMARK   98  A    between atoms: _217  and  _218
REMARK   99  A    between atoms: _221  and  _223
REMARK  100  A    between atoms: _223  and  _224
REMARK  101  A    between atoms: _223  and  _226
REMARK  102  A    between atoms: _226  and  _227
REMARK  103  A    between atoms: _230  and  _232
REMARK  104  A    between atoms: _232  and  _233
REMARK  105  A    between atoms: _232  and  _235
REMARK  106  A    between atoms: _235  and  _236
REMARK  107  A    between atoms: _241  and  _243
REMARK  108  A    between atoms: _243  and  _244
REMARK  109  A    between atoms: _243  and  _246
REMARK  110  A    between atoms: _246  and  _247
REMARK  111  A    between atoms: _252  and  _254
REMARK  112  A    between atoms: _254  and  _255
REMARK  113  A    between atoms: _254  and  _257
REMARK  114  A    between atoms: _257  and  _258
REMARK  115  A    between atoms: _261  and  _263
REMARK  116  A    between atoms: _263  and  _264
REMARK  117  A    between atoms: _263  and  _266
REMARK  118  A    between atoms: _266  and  _267
REMARK  119  A    between atoms: _270  and  _272
REMARK  120  A    between atoms: _272  and  _273
REMARK  121  A    between atoms: _272  and  _275
REMARK  122  A    between atoms: _275  and  _276
REMARK  123  A    between atoms: _279  and  _281
REMARK  124  A    between atoms: _281  and  _282
REMARK  125  A    between atoms: _285  and  _287
REMARK  126  A    between atoms: _287  and  _288
REMARK  127  A    between atoms: _287  and  _290
REMARK  128  A    between atoms: _290  and  _291
REMARK  129  A    between atoms: _291  and  _292
REMARK  130  A    between atoms: _292  and  _293
REMARK  131  A    between atoms: _293  and  _294
REMARK  132  A    between atoms: _298  and  _300
REMARK  133  A    between atoms: _300  and  _301
REMARK  134  A    between atoms: _300  and  _303
REMARK  135  A    between atoms: _303  and  _304
REMARK  136  A    between atoms: _306  and  _308
REMARK  137  A    between atoms: _308  and  _309
REMARK  138  A    between atoms: _311  and  _313
REMARK  139  A    between atoms: _313  and  _314
REMARK  140  A    between atoms: _313  and  _316
REMARK  141  A    between atoms: _316  and  _317
REMARK  142  A    between atoms: _323  and  _325
REMARK  143  A    between atoms: _325  and  _326
REMARK  144  A    between atoms: _328  and  _330
REMARK  145  A    between atoms: _330  and  _331
REMARK  146  A    between atoms: _330  and  _333
REMARK  147  A    between atoms: _336  and  _338
REMARK  148  A    between atoms: _338  and  _339
REMARK  149  A    between atoms: _341  and  _343
REMARK  150  A    between atoms: _343  and  _344
REMARK  151  A    between atoms: _343  and  _346
REMARK  152  A    between atoms: _346  and  _347
REMARK  153  A    between atoms: _353  and  _355
REMARK  154  A    between atoms: _355  and  _356
REMARK  155  A    between atoms: _355  and  _358
REMARK  156  A    between atoms: _358  and  _359
REMARK  157  A    between atoms: _364  and  _365
REMARK  158  A    between atoms: _367  and  _369
REMARK  159  A    between atoms: _369  and  _370
REMARK  160  A    between atoms: _373  and  _375
REMARK  161  A    between atoms: _375  and  _376
REMARK  162  A    between atoms: _375  and  _378
REMARK  163  A    between atoms: _378  and  _379
REMARK  164  A    between atoms: _384  and  _385
REMARK  165  A    between atoms: _387  and  _389
REMARK  166  A    between atoms: _389  and  _390
REMARK  167  A    between atoms: _389  and  _392
REMARK  168  A    between atoms: _395  and  _397
REMARK  169  A    between atoms: _397  and  _398
REMARK  170  A    between atoms: _397  and  _400
REMARK  171  A    between atoms: _400  and  _401
REMARK  172  A    between atoms: _404  and  _406
REMARK  173  A    between atoms: _406  and  _407
REMARK  174  A    between atoms: _406  and  _409
REMARK  175  A    between atoms: _412  and  _414
REMARK  176  A    between atoms: _414  and  _415
REMARK  177  A    between atoms: _414  and  _417
REMARK  178  A    between atoms: _417  and  _418
REMARK  179  A    between atoms: _421  and  _423
REMARK  180  A    between atoms: _423  and  _424
REMARK  181  A    between atoms: _423  and  _426
REMARK  182  A    between atoms: _426  and  _427
REMARK  183  A    between atoms: _430  and  _432
REMARK  184  A    between atoms: _432  and  _433
REMARK  185  A    between atoms: _432  and  _435
REMARK  186  A    between atoms: _435  and  _436
REMARK  187  A    between atoms: _436  and  _437
REMARK  188  A    between atoms: _437  and  _438
REMARK  189  A    between atoms: _438  and  _439
REMARK  190  A    between atoms: _443  and  _445
REMARK  191  A    between atoms: _445  and  _446
REMARK  192  A    between atoms: _445  and  _448
REMARK  193  A    between atoms: _448  and  _449
REMARK  194  A    between atoms: _454  and  _456
REMARK  195  A    between atoms: _456  and  _457
REMARK  196  A    between atoms: _456  and  _459
REMARK  197  A    between atoms: _459  and  _460
REMARK  198  A    between atoms: _470  and  _472
REMARK  199  A    between atoms: _472  and  _473
REMARK  200  A    between atoms: _472  and  _475
REMARK  201  A    between atoms: _475  and  _476
REMARK  202  A    between atoms: _476  and  _477
REMARK  203  A    between atoms: _479  and  _481
REMARK  204  A    between atoms: _481  and  _482
REMARK  205  A    between atoms: _481  and  _484
REMARK  206  A    between atoms: _484  and  _485
REMARK  207  A    between atoms: _485  and  _486
REMARK  208  A    between atoms: _486  and  _487
REMARK  209  A    between atoms: _496  and  _498
REMARK  210  A    between atoms: _498  and  _499
REMARK  211  A    between atoms: _501  and  _503
REMARK  212  A    between atoms: _503  and  _504
REMARK  213  A    between atoms: _503  and  _506
REMARK  214  A    between atoms: _506  and  _507
REMARK  215  A    between atoms: _510  and  _512
REMARK  216  A    between atoms: _512  and  _513
REMARK  217  A    between atoms: _512  and  _515
REMARK  218  A    between atoms: _515  and  _516
REMARK  219  A    between atoms: _516  and  _517
REMARK  220  A    between atoms: _517  and  _518
REMARK  221  A    between atoms: _518  and  _519
REMARK  222  A    between atoms: _523  and  _525
REMARK  223  A    between atoms: _525  and  _526
REMARK  224  A    between atoms: _525  and  _528
REMARK  225  A    between atoms: _531  and  _533
REMARK  226  A    between atoms: _533  and  _534
REMARK  227  A    between atoms: _533  and  _536
REMARK  228  A    between atoms: _536  and  _537
REMARK  229  A    between atoms: _540  and  _542
REMARK  230  A    between atoms: _542  and  _543
REMARK  231  A    between atoms: _542  and  _545
REMARK  232  A    between atoms: _545  and  _546
REMARK                            x       y       z     vdW  Elec       q    Type
REMARK                         _______ _______ _______ _____ _____    ______ ____
ROOT
ATOM      1  C   ASP A   1       6.645  31.417  -8.736  0.00  0.00    +0.239 C 
ATOM      2  O   ASP A   1       6.845  32.020  -7.658  0.00  0.00    -0.274 OA
ATOM      3  N   LEU A   2       6.276  30.152  -8.787  0.00  0.00    -0.298 N 
ATOM      4  H   LEU A   2       6.100  29.682  -9.698  0.00  0.00    +0.150 HD
ENDROOT
BRANCH   1   5
ATOM      5  CA  ASP A   1       6.816  32.137 -10.054  0.00  0.00    +0.156 C 
BRANCH   5   6
ATOM      6  N   ASP A   1       7.207  31.222 -11.114  0.00  0.00    -0.238 NA
ATOM      7  H   ASP A   1       6.527  30.950 -11.852  0.00  0.00    +0.142 HD
ENDBRANCH   5   6
BRANCH   5   8
ATOM      8  CB  ASP A   1       5.508  32.848 -10.354  0.00  0.00    +0.140 C 
BRANCH   8   9
ATOM      9  CG  ASP A   1       5.706  34.071 -11.216  0.00  0.00    +0.367 C 
ATOM     10  OD2 ASP A   1       6.878  34.526 -11.392  0.00  0.00    -0.246 OA
ATOM     11  OD1 ASP A   1       4.699  34.594 -11.688  0.00  0.00    -0.246 OA
ENDBRANCH   8   9
ENDBRANCH   5   8
ENDBRANCH   1   5
BRANCH   3  12
ATOM     12  CA  LEU A   2       6.121  29.425  -7.517  0.00  0.00    +0.137 C 
BRANCH  12  13
ATOM     13  C   LEU A   2       7.521  29.323  -6.840  0.00  0.00    +0.227 C 
ATOM     14  O   LEU A   2       7.694  29.569  -5.626  0.00  0.00    -0.286 OA
ENDBRANCH  12  13
BRANCH  12  15
ATOM     15  CB  LEU A   2       5.538  28.039  -7.808  0.00  0.00    +0.028 C 
BRANCH  15  16
ATOM     16  CG  LEU A   2       5.435  27.033  -6.679  0.00  0.00    +0.002 C 
ATOM     17  CD2 LEU A   2       4.461  27.551  -5.629  0.00  0.00    +0.000 C 
ATOM     18  CD1 LEU A   2       4.916  25.702  -7.277  0.00  0.00    +0.000 C 
ENDBRANCH  15  16
ENDBRANCH  12  15
ENDBRANCH   3  12
TORSDOF 8
REMARK  Name = ../refined-set-2016/1yc1/1yc1_pocket.pdb
REMARK  232 active torsions:
REMARK  status: ('A' for Active; 'I' for Inactive)
REMARK    1  A    between atoms: _1  and  _3
REMARK    2  A    between atoms: _3  and  _4
REMARK    3  A    between atoms: _3  and  _6
REMARK    4  A    between atoms: _6  and  _7
REMARK    5  A    between atoms: _13  and  _15
REMARK    6  A    between atoms: _15  and  _16
REMARK    7  A    between atoms: _15  and  _18
REMARK    8  A    between atoms: _18  and  _19
REMARK    9  A    between atoms: _19  and  _20
REMARK   10  A    between atoms: _23  and  _25
REMARK   11  A    between atoms: _25  and  _26
REMARK   12  A    between atoms: _25  and  _28
REMARK   13  A    between atoms: _28  and  _29
REMARK   14  A    between atoms: _32  and  _34
REMARK   15  A    between atoms: _34  and  _35
REMARK   16  A    between atoms: _34  and  _37
REMARK   17  A    between atoms: _37  and  _38
REMARK   18  A    between atoms: _41  and  _43
REMARK   19  A    between atoms: _43  and  _44
REMARK   20  A    between atoms: _43  and  _46
REMARK   21  A    between atoms: _46  and  _47
REMARK   22  A    between atoms: _49  and  _51
REMARK   23  A    between atoms: _51  and  _52
REMARK   24  A    between atoms: _51  and  _54
REMARK   25  A    between atoms: _54  and  _55
REMARK   26  A    between atoms: _60  and  _62
REMARK   27  A    between atoms: _62  and  _63
REMARK   28  A    between atoms: _62  and  _65
REMARK   29  A    between atoms: _65  and  _66
REMARK   30  A    between atoms: _68  and  _70
REMARK   31  A    between atoms: _70  and  _71
REMARK   32  A    between atoms: _70  and  _73
REMARK   33  A    between atoms: _73  and  _74
REMARK   34  A    between atoms: _76  and  _78
REMARK   35  A    between atoms: _78  and  _79
REMARK   36  A    between atoms: _78  and  _81
REMARK   37  A    between atoms: _81  and  _82
REMARK   38  A    between atoms: _85  and  _87
REMARK   39  A    between atoms: _87  and  _88
REMARK   40  A    between atoms: _91  and  _93
REMARK   41  A    between atoms: _93  and  _94
REMARK   42  A    between atoms: _93  and  _96
REMARK   43  A    between atoms: _96  and  _97
REMARK   44  A    between atoms: _100  and  _102
REMARK   45  A    between atoms: _102  and  _103
REMARK   46  A    between atoms: _102  and  _105
REMARK   47  A    between atoms: _105  and  _106
REMARK   48  A    between atoms: _109  and  _111
REMARK   49  A    between atoms: _111  and  _112
REMARK   50  A    between atoms: _111  and  _114
REMARK   51  A    between atoms: _114  and  _115
REMARK   52  A    between atoms: _115  and  _116
REMARK   53  A    between atoms: _116  and  _117
REMARK   54  A    between atoms: _117  and  _118
REMARK   55  A    between atoms: _122  and  _124
REMARK   56  A    between atoms: _124  and  _125
REMARK   57  A    between atoms: _124  and  _127
REMARK   58  A    between atoms: _127  and  _128
REMARK   59  A    between atoms: _131  and  _133
REMARK   60  A    between atoms: _133  and  _134
REMARK   61  A    between atoms: _133  and  _136
REMARK   62  A    between atoms: _136  and  _137
REMARK   63  A    between atoms: _140  and  _142
REMARK   64  A    between atoms: _142  and  _143
REMARK   65  A    between atoms: _142  and  _145
REMARK   66  A    between atoms: _145  and  _146
REMARK   67  A    between atoms: _149  and  _151
REMARK   68  A    between atoms: _151  and  _152
REMARK   69  A    between atoms: _151  and  _154
REMARK   70  A    between atoms: _157  and  _159
REMARK   71  A    between atoms: _159  and  _160
REMARK   72  A    between atoms: _159  and  _162
REMARK   73  A    between atoms: _162  and  _163
REMARK   74  A    between atoms: _166  and  _168
REMARK   75  A    between atoms: _168  and  _169
REMARK   76  A    between atoms: _168  and  _171
REMARK   77  A    between atoms: _171  and  _172
REMARK   78  A    between atoms: _175  and  _177
REMARK   79  A    between atoms: _177  and  _178
REMARK   80  A    between atoms: _180  and  _182
REMARK   81  A    between atoms: _182  and  _183
REMARK   82  A    between atoms: _182  and  _185
REMARK   83  A    between atoms: _185  and  _186
REMARK   84  A    between atoms: _189  and  _191
REMARK   85  A    between atoms: _191  and  _192
REMARK   86  A    between atoms: _194  and  _196
REMARK   87  A    between atoms: _196  and  _197
REMARK   88  A    between atoms: _196  and  _199
REMARK   89  A    between atoms: _199  and  _200
REMARK   90  A    between atoms: _200  and  _201
REMARK   91  A    between atoms: _203  and  _205
REMARK   92  A    between atoms: _205  and  _206
REMARK   93  A    between atoms: _205  and  _208
REMARK   94  A    between atoms: _208  and  _209
REMARK   95  A    between atoms: _212  and  _214
REMARK   96  A    between atoms: _214  and  _215
REMARK   97  A    between atoms: _214  and  _217
REMARK   98  A    between atoms: _217  and  _218
REMARK   99  A    between atoms: _221  and  _223
REMARK  100  A    between atoms: _223  and  _224
REMARK  101  A    between atoms: _223  and  _226
REMARK  102  A    between atoms: _226  and  _227
REMARK  103  A    between atoms: _230  and  _232
REMARK  104  A    between atoms: _232  and  _233
REMARK  105  A    between atoms: _232  and  _235
REMARK  106  A    between atoms: _235  and  _236
REMARK  107  A    between atoms: _241  and  _243
REMARK  108  A    between atoms: _243  and  _244
REMARK  109  A    between atoms: _243  and  _246
REMARK  110  A    between atoms: _246  and  _247
REMARK  111  A    between atoms: _252  and  _254
REMARK  112  A    between atoms: _254  and  _255
REMARK  113  A    between atoms: _254  and  _257
REMARK  114  A    between atoms: _257  and  _258
REMARK  115  A    between atoms: _261  and  _263
REMARK  116  A    between atoms: _263  and  _264
REMARK  117  A    between atoms: _263  and  _266
REMARK  118  A    between atoms: _266  and  _267
REMARK  119  A    between atoms: _270  and  _272
REMARK  120  A    between atoms: _272  and  _273
REMARK  121  A    between atoms: _272  and  _275
REMARK  122  A    between atoms: _275  and  _276
REMARK  123  A    between atoms: _279  and  _281
REMARK  124  A    between atoms: _281  and  _282
REMARK  125  A    between atoms: _285  and  _287
REMARK  126  A    between atoms: _287  and  _288
REMARK  127  A    between atoms: _287  and  _290
REMARK  128  A    between atoms: _290  and  _291
REMARK  129  A    between atoms: _291  and  _292
REMARK  130  A    between atoms: _292  and  _293
REMARK  131  A    between atoms: _293  and  _294
REMARK  132  A    between atoms: _298  and  _300
REMARK  133  A    between atoms: _300  and  _301
REMARK  134  A    between atoms: _300  and  _303
REMARK  135  A    between atoms: _303  and  _304
REMARK  136  A    between atoms: _306  and  _308
REMARK  137  A    between atoms: _308  and  _309
REMARK  138  A    between atoms: _311  and  _313
REMARK  139  A    between atoms: _313  and  _314
REMARK  140  A    between atoms: _313  and  _316
REMARK  141  A    between atoms: _316  and  _317
REMARK  142  A    between atoms: _323  and  _325
REMARK  143  A    between atoms: _325  and  _326
REMARK  144  A    between atoms: _328  and  _330
REMARK  145  A    between atoms: _330  and  _331
REMARK  146  A    between atoms: _330  and  _333
REMARK  147  A    between atoms: _336  and  _338
REMARK  148  A    between atoms: _338  and  _339
REMARK  149  A    between atoms: _341  and  _343
REMARK  150  A    between atoms: _343  and  _344
REMARK  151  A    between atoms: _343  and  _346
REMARK  152  A    between atoms: _346  and  _347
REMARK  153  A    between atoms: _353  and  _355
REMARK  154  A    between atoms: _355  and  _356
REMARK  155  A    between atoms: _355  and  _358
REMARK  156  A    between atoms: _358  and  _359
REMARK  157  A    between atoms: _364  and  _365
REMARK  158  A    between atoms: _367  and  _369
REMARK  159  A    between atoms: _369  and  _370
REMARK  160  A    between atoms: _373  and  _375
REMARK  161  A    between atoms: _375  and  _376
REMARK  162  A    between atoms: _375  and  _378
REMARK  163  A    between atoms: _378  and  _379
REMARK  164  A    between atoms: _384  and  _385
REMARK  165  A    between atoms: _387  and  _389
REMARK  166  A    between atoms: _389  and  _390
REMARK  167  A    between atoms: _389  and  _392
REMARK  168  A    between atoms: _395  and  _397
REMARK  169  A    between atoms: _397  and  _398
REMARK  170  A    between atoms: _397  and  _400
REMARK  171  A    between atoms: _400  and  _401
REMARK  172  A    between atoms: _404  and  _406
REMARK  173  A    between atoms: _406  and  _407
REMARK  174  A    between atoms: _406  and  _409
REMARK  175  A    between atoms: _412  and  _414
REMARK  176  A    between atoms: _414  and  _415
REMARK  177  A    between atoms: _414  and  _417
REMARK  178  A    between atoms: _417  and  _418
REMARK  179  A    between atoms: _421  and  _423
REMARK  180  A    between atoms: _423  and  _424
REMARK  181  A    between atoms: _423  and  _426
REMARK  182  A    between atoms: _426  and  _427
REMARK  183  A    between atoms: _430  and  _432
REMARK  184  A    between atoms: _432  and  _433
REMARK  185  A    between atoms: _432  and  _435
REMARK  186  A    between atoms: _435  and  _436
REMARK  187  A    between atoms: _436  and  _437
REMARK  188  A    between atoms: _437  and  _438
REMARK  189  A    between atoms: _438  and  _439
REMARK  190  A    between atoms: _443  and  _445
REMARK  191  A    between atoms: _445  and  _446
REMARK  192  A    between atoms: _445  and  _448
REMARK  193  A    between atoms: _448  and  _449
REMARK  194  A    between atoms: _454  and  _456
REMARK  195  A    between atoms: _456  and  _457
REMARK  196  A    between atoms: _456  and  _459
REMARK  197  A    between atoms: _459  and  _460
REMARK  198  A    between atoms: _470  and  _472
REMARK  199  A    between atoms: _472  and  _473
REMARK  200  A    between atoms: _472  and  _475
REMARK  201  A    between atoms: _475  and  _476
REMARK  202  A    between atoms: _476  and  _477
REMARK  203  A    between atoms: _479  and  _481
REMARK  204  A    between atoms: _481  and  _482
REMARK  205  A    between atoms: _481  and  _484
REMARK  206  A    between atoms: _484  and  _485
REMARK  207  A    between atoms: _485  and  _486
REMARK  208  A    between atoms: _486  and  _487
REMARK  209  A    between atoms: _496  and  _498
REMARK  210  A    between atoms: _498  and  _499
REMARK  211  A    between atoms: _501  and  _503
REMARK  212  A    between atoms: _503  and  _504
REMARK  213  A    between atoms: _503  and  _506
REMARK  214  A    between atoms: _506  and  _507
REMARK  215  A    between atoms: _510  and  _512
REMARK  216  A    between atoms: _512  and  _513
REMARK  217  A    between atoms: _512  and  _515
REMARK  218  A    between atoms: _515  and  _516
REMARK  219  A    between atoms: _516  and  _517
REMARK  220  A    between atoms: _517  and  _518
REMARK  221  A    between atoms: _518  and  _519
REMARK  222  A    between atoms: _523  and  _525
REMARK  223  A    between atoms: _525  and  _526
REMARK  224  A    between atoms: _525  and  _528
REMARK  225  A    between atoms: _531  and  _533
REMARK  226  A    between atoms: _533  and  _534
REMARK  227  A    between atoms: _533  and  _536
REMARK  228  A    between atoms: _536  and  _537
REMARK  229  A    between atoms: _540  and  _542
REMARK  230  A    between atoms: _542  and  _543
REMARK  231  A    between atoms: _542  and  _545
REMARK  232  A    between atoms: _545  and  _546
REMARK                            x       y       z     vdW  Elec       q    Type
REMARK                         _______ _______ _______ _____ _____    ______ ____
ROOT
ATOM      1  CA  ASN A   2       7.884  33.594  -4.774  0.00  0.00    +0.158 C 
ENDROOT
BRANCH   1   4
ATOM      2  C   ASN A   1       9.937  33.078  -5.870  0.00  0.00    +0.239 C 
ATOM      3  O   ASN A   1      10.570  33.606  -4.947  0.00  0.00    -0.274 OA
ATOM      4  N   ASN A   2       8.616  32.980  -5.849  0.00  0.00    -0.297 N 
ATOM      5  H   ASN A   2       8.114  32.465  -6.601  0.00  0.00    +0.150 HD
BRANCH   2   6
ATOM      6  CA  ASN A   1      10.622  32.483  -7.099  0.00  0.00    +0.154 C 
BRANCH   6   7
ATOM      7  N   ASN A   1      10.105  31.161  -7.465  0.00  0.00    -0.238 NA
ATOM      8  H   ASN A   1       9.554  31.031  -8.338  0.00  0.00    +0.142 HD
ENDBRANCH   6   7
BRANCH   6   9
ATOM      9  CB  ASN A   1      10.495  33.481  -8.256  0.00  0.00    +0.111 C 
BRANCH   9  10
ATOM     10  CG  ASN A   1      11.365  34.683  -8.064  0.00  0.00    +0.221 C 
ATOM     11  OD1 ASN A   1      12.582  34.540  -7.867  0.00  0.00    -0.275 OA
ATOM     12  ND2 ASN A   1      10.780  35.855  -8.105  0.00  0.00    -0.329 N 
ATOM     13 HD21 ASN A   1      11.340  36.721  -7.969  0.00  0.00    +0.145 HD
ATOM     14 HD22 ASN A   1       9.756  35.919  -8.274  0.00  0.00    +0.145 HD
ENDBRANCH   9  10
ENDBRANCH   6   9
ENDBRANCH   2   6
ENDBRANCH   1   4
BRANCH   1  15
ATOM     15  C   ASN A   2       8.084  32.926  -3.423  0.00  0.00    +0.241 C 
ATOM     16  O   ASN A   2       7.985  33.571  -2.388  0.00  0.00    -0.273 OA
ATOM     17  N   LEU A   3       8.297  31.623  -3.409  0.00  0.00    -0.298 N 
ATOM     18  H   LEU A   3       8.365  31.082  -4.294  0.00  0.00    +0.150 HD
BRANCH  17  19
ATOM     19  CA  LEU A   3       8.434  30.963  -2.108  0.00  0.00    +0.137 C 
BRANCH  19  20
ATOM     20  C   LEU A   3       9.883  30.597  -1.805  0.00  0.00    +0.227 C 
ATOM     21  O   LEU A   3      10.258  30.401  -0.638  0.00  0.00    -0.286 OA
ENDBRANCH  19  20
BRANCH  19  22
ATOM     22  CB  LEU A   3       7.562  29.686  -2.111  0.00  0.00    +0.028 C 
BRANCH  22  23
ATOM     23  CG  LEU A   3       6.077  29.896  -2.409  0.00  0.00    +0.002 C 
ATOM     24  CD2 LEU A   3       5.486  30.974  -1.436  0.00  0.00    +0.000 C 
ATOM     25  CD1 LEU A   3       5.347  28.550  -2.218  0.00  0.00    +0.000 C 
ENDBRANCH  22  23
ENDBRANCH  19  22
ENDBRANCH  17  19
ENDBRANCH   1  15
BRANCH   1  26
ATOM     26  CB  ASN A   2       6.367  33.568  -5.050  0.00  0.00    +0.114 C 
BRANCH  26  27
ATOM     27  CG  ASN A   2       5.984  34.486  -6.164  0.00  0.00    +0.222 C 
ATOM     28  OD1 ASN A   2       6.706  35.417  -6.469  0.00  0.00    -0.275 OA
ATOM     29  ND2 ASN A   2       4.819  34.268  -6.738  0.00  0.00    -0.329 N 
ATOM     30 HD21 ASN A   2       4.237  33.458  -6.443  0.00  0.00    +0.145 HD
ATOM     31 HD22 ASN A   2       4.481  34.906  -7.487  0.00  0.00    +0.145 HD
ENDBRANCH  26  27
ENDBRANCH   1  26
TORSDOF 12
REMARK  Name = ../refined-set-2016/1yc1/1yc1_pocket.pdb
REMARK  232 active torsions:
REMARK  status: ('A' for Active; 'I' for Inactive)
REMARK    1  A    between atoms: _1  and  _3
REMARK    2  A    between atoms: _3  and  _4
REMARK    3  A    between atoms: _3  and  _6
REMARK    4  A    between atoms: _6  and  _7
REMARK    5  A    between atoms: _13  and  _15
REMARK    6  A    between atoms: _15  and  _16
REMARK    7  A    between atoms: _15  and  _18
REMARK    8  A    between atoms: _18  and  _19
REMARK    9  A    between atoms: _19  and  _20
REMARK   10  A    between atoms: _23  and  _25
REMARK   11  A    between atoms: _25  and  _26
REMARK   12  A    between atoms: _25  and  _28
REMARK   13  A    between atoms: _28  and  _29
REMARK   14  A    between atoms: _32  and  _34
REMARK   15  A    between atoms: _34  and  _35
REMARK   16  A    between atoms: _34  and  _37
REMARK   17  A    between atoms: _37  and  _38
REMARK   18  A    between atoms: _41  and  _43
REMARK   19  A    between atoms: _43  and  _44
REMARK   20  A    between atoms: _43  and  _46
REMARK   21  A    between atoms: _46  and  _47
REMARK   22  A    between atoms: _49  and  _51
REMARK   23  A    between atoms: _51  and  _52
REMARK   24  A    between atoms: _51  and  _54
REMARK   25  A    between atoms: _54  and  _55
REMARK   26  A    between atoms: _60  and  _62
REMARK   27  A    between atoms: _62  and  _63
REMARK   28  A    between atoms: _62  and  _65
REMARK   29  A    between atoms: _65  and  _66
REMARK   30  A    between atoms: _68  and  _70
REMARK   31  A    between atoms: _70  and  _71
REMARK   32  A    between atoms: _70  and  _73
REMARK   33  A    between atoms: _73  and  _74
REMARK   34  A    between atoms: _76  and  _78
REMARK   35  A    between atoms: _78  and  _79
REMARK   36  A    between atoms: _78  and  _81
REMARK   37  A    between atoms: _81  and  _82
REMARK   38  A    between atoms: _85  and  _87
REMARK   39  A    between atoms: _87  and  _88
REMARK   40  A    between atoms: _91  and  _93
REMARK   41  A    between atoms: _93  and  _94
REMARK   42  A    between atoms: _93  and  _96
REMARK   43  A    between atoms: _96  and  _97
REMARK   44  A    between atoms: _100  and  _102
REMARK   45  A    between atoms: _102  and  _103
REMARK   46  A    between atoms: _102  and  _105
REMARK   47  A    between atoms: _105  and  _106
REMARK   48  A    between atoms: _109  and  _111
REMARK   49  A    between atoms: _111  and  _112
REMARK   50  A    between atoms: _111  and  _114
REMARK   51  A    between atoms: _114  and  _115
REMARK   52  A    between atoms: _115  and  _116
REMARK   53  A    between atoms: _116  and  _117
REMARK   54  A    between atoms: _117  and  _118
REMARK   55  A    between atoms: _122  and  _124
REMARK   56  A    between atoms: _124  and  _125
REMARK   57  A    between atoms: _124  and  _127
REMARK   58  A    between atoms: _127  and  _128
REMARK   59  A    between atoms: _131  and  _133
REMARK   60  A    between atoms: _133  and  _134
REMARK   61  A    between atoms: _133  and  _136
REMARK   62  A    between atoms: _136  and  _137
REMARK   63  A    between atoms: _140  and  _142
REMARK   64  A    between atoms: _142  and  _143
REMARK   65  A    between atoms: _142  and  _145
REMARK   66  A    between atoms: _145  and  _146
REMARK   67  A    between atoms: _149  and  _151
REMARK   68  A    between atoms: _151  and  _152
REMARK   69  A    between atoms: _151  and  _154
REMARK   70  A    between atoms: _157  and  _159
REMARK   71  A    between atoms: _159  and  _160
REMARK   72  A    between atoms: _159  and  _162
REMARK   73  A    between atoms: _162  and  _163
REMARK   74  A    between atoms: _166  and  _168
REMARK   75  A    between atoms: _168  and  _169
REMARK   76  A    between atoms: _168  and  _171
REMARK   77  A    between atoms: _171  and  _172
REMARK   78  A    between atoms: _175  and  _177
REMARK   79  A    between atoms: _177  and  _178
REMARK   80  A    between atoms: _180  and  _182
REMARK   81  A    between atoms: _182  and  _183
REMARK   82  A    between atoms: _182  and  _185
REMARK   83  A    between atoms: _185  and  _186
REMARK   84  A    between atoms: _189  and  _191
REMARK   85  A    between atoms: _191  and  _192
REMARK   86  A    between atoms: _194  and  _196
REMARK   87  A    between atoms: _196  and  _197
REMARK   88  A    between atoms: _196  and  _199
REMARK   89  A    between atoms: _199  and  _200
REMARK   90  A    between atoms: _200  and  _201
REMARK   91  A    between atoms: _203  and  _205
REMARK   92  A    between atoms: _205  and  _206
REMARK   93  A    between atoms: _205  and  _208
REMARK   94  A    between atoms: _208  and  _209
REMARK   95  A    between atoms: _212  and  _214
REMARK   96  A    between atoms: _214  and  _215
REMARK   97  A    between atoms: _214  and  _217
REMARK   98  A    between atoms: _217  and  _218
REMARK   99  A    between atoms: _221  and  _223
REMARK  100  A    between atoms: _223  and  _224
REMARK  101  A    between atoms: _223  and  _226
REMARK  102  A    between atoms: _226  and  _227
REMARK  103  A    between atoms: _230  and  _232
REMARK  104  A    between atoms: _232  and  _233
REMARK  105  A    between atoms: _232  and  _235
REMARK  106  A    between atoms: _235  and  _236
REMARK  107  A    between atoms: _241  and  _243
REMARK  108  A    between atoms: _243  and  _244
REMARK  109  A    between atoms: _243  and  _246
REMARK  110  A    between atoms: _246  and  _247
REMARK  111  A    between atoms: _252  and  _254
REMARK  112  A    between atoms: _254  and  _255
REMARK  113  A    between atoms: _254  and  _257
REMARK  114  A    between atoms: _257  and  _258
REMARK  115  A    between atoms: _261  and  _263
REMARK  116  A    between atoms: _263  and  _264
REMARK  117  A    between atoms: _263  and  _266
REMARK  118  A    between atoms: _266  and  _267
REMARK  119  A    between atoms: _270  and  _272
REMARK  120  A    between atoms: _272  and  _273
REMARK  121  A    between atoms: _272  and  _275
REMARK  122  A    between atoms: _275  and  _276
REMARK  123  A    between atoms: _279  and  _281
REMARK  124  A    between atoms: _281  and  _282
REMARK  125  A    between atoms: _285  and  _287
REMARK  126  A    between atoms: _287  and  _288
REMARK  127  A    between atoms: _287  and  _290
REMARK  128  A    between atoms: _290  and  _291
REMARK  129  A    between atoms: _291  and  _292
REMARK  130  A    between atoms: _292  and  _293
REMARK  131  A    between atoms: _293  and  _294
REMARK  132  A    between atoms: _298  and  _300
REMARK  133  A    between atoms: _300  and  _301
REMARK  134  A    between atoms: _300  and  _303
REMARK  135  A    between atoms: _303  and  _304
REMARK  136  A    between atoms: _306  and  _308
REMARK  137  A    between atoms: _308  and  _309
REMARK  138  A    between atoms: _311  and  _313
REMARK  139  A    between atoms: _313  and  _314
REMARK  140  A    between atoms: _313  and  _316
REMARK  141  A    between atoms: _316  and  _317
REMARK  142  A    between atoms: _323  and  _325
REMARK  143  A    between atoms: _325  and  _326
REMARK  144  A    between atoms: _328  and  _330
REMARK  145  A    between atoms: _330  and  _331
REMARK  146  A    between atoms: _330  and  _333
REMARK  147  A    between atoms: _336  and  _338
REMARK  148  A    between atoms: _338  and  _339
REMARK  149  A    between atoms: _341  and  _343
REMARK  150  A    between atoms: _343  and  _344
REMARK  151  A    between atoms: _343  and  _346
REMARK  152  A    between atoms: _346  and  _347
REMARK  153  A    between atoms: _353  and  _355
REMARK  154  A    between atoms: _355  and  _356
REMARK  155  A    between atoms: _355  and  _358
REMARK  156  A    between atoms: _358  and  _359
REMARK  157  A    between atoms: _364  and  _365
REMARK  158  A    between atoms: _367  and  _369
REMARK  159  A    between atoms: _369  and  _370
REMARK  160  A    between atoms: _373  and  _375
REMARK  161  A    between atoms: _375  and  _376
REMARK  162  A    between atoms: _375  and  _378
REMARK  163  A    between atoms: _378  and  _379
REMARK  164  A    between atoms: _384  and  _385
REMARK  165  A    between atoms: _387  and  _389
REMARK  166  A    between atoms: _389  and  _390
REMARK  167  A    between atoms: _389  and  _392
REMARK  168  A    between atoms: _395  and  _397
REMARK  169  A    between atoms: _397  and  _398
REMARK  170  A    between atoms: _397  and  _400
REMARK  171  A    between atoms: _400  and  _401
REMARK  172  A    between atoms: _404  and  _406
REMARK  173  A    between atoms: _406  and  _407
REMARK  174  A    between atoms: _406  and  _409
REMARK  175  A    between atoms: _412  and  _414
REMARK  176  A    between atoms: _414  and  _415
REMARK  177  A    between atoms: _414  and  _417
REMARK  178  A    between atoms: _417  and  _418
REMARK  179  A    between atoms: _421  and  _423
REMARK  180  A    between atoms: _423  and  _424
REMARK  181  A    between atoms: _423  and  _426
REMARK  182  A    between atoms: _426  and  _427
REMARK  183  A    between atoms: _430  and  _432
REMARK  184  A    between atoms: _432  and  _433
REMARK  185  A    between atoms: _432  and  _435
REMARK  186  A    between atoms: _435  and  _436
REMARK  187  A    between atoms: _436  and  _437
REMARK  188  A    between atoms: _437  and  _438
REMARK  189  A    between atoms: _438  and  _439
REMARK  190  A    between atoms: _443  and  _445
REMARK  191  A    between atoms: _445  and  _446
REMARK  192  A    between atoms: _445  and  _448
REMARK  193  A    between atoms: _448  and  _449
REMARK  194  A    between atoms: _454  and  _456
REMARK  195  A    between atoms: _456  and  _457
REMARK  196  A    between atoms: _456  and  _459
REMARK  197  A    between atoms: _459  and  _460
REMARK  198  A    between atoms: _470  and  _472
REMARK  199  A    between atoms: _472  and  _473
REMARK  200  A    between atoms: _472  and  _475
REMARK  201  A    between atoms: _475  and  _476
REMARK  202  A    between atoms: _476  and  _477
REMARK  203  A    between atoms: _479  and  _481
REMARK  204  A    between atoms: _481  and  _482
REMARK  205  A    between atoms: _481  and  _484
REMARK  206  A    between atoms: _484  and  _485
REMARK  207  A    between atoms: _485  and  _486
REMARK  208  A    between atoms: _486  and  _487
REMARK  209  A    between atoms: _496  and  _498
REMARK  210  A    between atoms: _498  and  _499
REMARK  211  A    between atoms: _501  and  _503
REMARK  212  A    between atoms: _503  and  _504
REMARK  213  A    between atoms: _503  and  _506
REMARK  214  A    between atoms: _506  and  _507
REMARK  215  A    between atoms: _510  and  _512
REMARK  216  A    between atoms: _512  and  _513
REMARK  217  A    between atoms: _512  and  _515
REMARK  218  A    between atoms: _515  and  _516
REMARK  219  A    between atoms: _516  and  _517
REMARK  220  A    between atoms: _517  and  _518
REMARK  221  A    between atoms: _518  and  _519
REMARK  222  A    between atoms: _523  and  _525
REMARK  223  A    between atoms: _525  and  _526
REMARK  224  A    between atoms: _525  and  _528
REMARK  225  A    between atoms: _531  and  _533
REMARK  226  A    between atoms: _533  and  _534
REMARK  227  A    between atoms: _533  and  _536
REMARK  228  A    between atoms: _536  and  _537
REMARK  229  A    between atoms: _540  and  _542
REMARK  230  A    between atoms: _542  and  _543
REMARK  231  A    between atoms: _542  and  _545
REMARK  232  A    between atoms: _545  and  _546
REMARK                            x       y       z     vdW  Elec       q    Type
REMARK                         _______ _______ _______ _____ _____    ______ ____
ROOT
ATOM      1  C   ALA A   3      11.332  39.465  -4.383  0.00  0.00    +0.241 C 
ATOM      2  N   LYS A   4      10.060  39.844  -4.238  0.00  0.00    -0.297 N 
ATOM      3  H   LYS A   4       9.306  39.130  -4.184  0.00  0.00    +0.150 HD
ATOM      4  O   ALA A   3      12.279  40.255  -4.352  0.00  0.00    -0.273 OA
ENDROOT
BRANCH   1   5
ATOM      5  CA  ALA A   3      11.571  37.966  -4.572  0.00  0.00    +0.149 C 
ATOM      6  CB  ALA A   3      10.279  37.218  -4.412  0.00  0.00    +0.031 C 
BRANCH   5   9
ATOM      7  C   ILE A   2      12.361  37.726  -2.261  0.00  0.00    +0.241 C 
ATOM      8  O   ILE A   2      11.456  38.410  -1.760  0.00  0.00    -0.273 OA
ATOM      9  N   ALA A   3      12.525  37.498  -3.559  0.00  0.00    -0.297 N 
ATOM     10  H   ALA A   3      13.363  36.967  -3.870  0.00  0.00    +0.150 HD
BRANCH   7  11
ATOM     11  CA  ILE A   2      13.411  37.113  -1.320  0.00  0.00    +0.148 C 
BRANCH  11  14
ATOM     12  C   THR A   1      13.050  34.824  -2.085  0.00  0.00    +0.241 C 
ATOM     13  O   THR A   1      11.874  34.850  -1.793  0.00  0.00    -0.274 OA
ATOM     14  N   ILE A   2      13.888  35.842  -1.852  0.00  0.00    -0.297 N 
ATOM     15  H   ILE A   2      14.901  35.724  -2.055  0.00  0.00    +0.150 HD
BRANCH  12  16
ATOM     16  CA  THR A   1      13.669  33.592  -2.709  0.00  0.00    +0.172 C 
BRANCH  16  17
ATOM     17  CB  THR A   1      14.116  34.027  -4.142  0.00  0.00    +0.135 C 
ATOM     18  CG2 THR A   1      14.441  32.746  -5.011  0.00  0.00    +0.034 C 
BRANCH  17  19
ATOM     19  OG1 THR A   1      13.034  34.745  -4.791  0.00  0.00    -0.383 OA
ATOM     20  HG1 THR A   1      13.319  35.020  -5.698  0.00  0.00    +0.210 HD
ENDBRANCH  17  19
ENDBRANCH  16  17
BRANCH  16  21
ATOM     21  N   THR A   1      12.701  32.473  -2.768  0.00  0.00    -0.236 NA
ATOM     22  H   THR A   1      11.718  32.643  -3.061  0.00  0.00    +0.142 HD
ENDBRANCH  16  21
ENDBRANCH  12  16
ENDBRANCH  11  14
BRANCH  11  23
ATOM     23  CB  ILE A   2      14.623  38.063  -1.126  0.00  0.00    +0.027 C 
ATOM     24  CG2 ILE A   2      14.135  39.473  -0.885  0.00  0.00    +0.002 C 
BRANCH  23  25
ATOM     25  CG1 ILE A   2      15.392  37.590   0.101  0.00  0.00    +0.002 C 
ATOM     26  CD1 ILE A   2      16.719  38.480   0.290  0.00  0.00    +0.000 C 
ENDBRANCH  23  25
ENDBRANCH  11  23
ENDBRANCH   7  11
ENDBRANCH   5   9
ENDBRANCH   1   5
BRANCH   2  27
ATOM     27  CA  LYS A   4       9.735  41.253  -4.156  0.00  0.00    +0.149 C 
BRANCH  27  28
ATOM     28  C   LYS A   4       9.649  41.814  -2.735  0.00  0.00    +0.241 C 
ATOM     29  N   SER A   5      10.013  40.976  -1.738  0.00  0.00    -0.296 N 
ATOM     30  H   SER A   5      10.455  40.066  -1.979  0.00  0.00    +0.150 HD
ATOM     31  O   LYS A   4       9.238  43.014  -2.551  0.00  0.00    -0.273 OA
BRANCH  29  32
ATOM     32  CA  SER A   5       9.804  41.310  -0.346  0.00  0.00    +0.166 C 
BRANCH  32  33
ATOM     33  CB  SER A   5      10.836  42.177   0.351  0.00  0.00    +0.229 C 
ATOM     34  OG  SER A   5      11.948  42.406  -0.163  0.00  0.00    -0.286 OA
ENDBRANCH  32  33
BRANCH  32  35
ATOM     35  C   SER A   5       9.735  40.022   0.485  0.00  0.00    +0.165 C 
BRANCH  35  36
ATOM     36  O   SER A   5      11.077  39.531   0.613  0.00  0.00    -0.380 OA
ATOM     37  H   SER A   5      11.447  39.347  -0.287  0.00  0.00    +0.211 HD
ENDBRANCH  35  36
ENDBRANCH  32  35
ENDBRANCH  29  32
ENDBRANCH  27  28
BRANCH  27  38
ATOM     38  CB  LYS A   4       8.362  41.523  -4.827  0.00  0.00    +0.029 C 
BRANCH  38  39
ATOM     39  CG  LYS A   4       8.295  40.964  -6.244  0.00  0.00    +0.000 C 
BRANCH  39  40
ATOM     40  CD  LYS A   4       6.935  41.307  -6.882  0.00  0.00    -0.024 C 
BRANCH  40  41
ATOM     41  CE  LYS A   4       6.841  40.677  -8.305  0.00  0.00    -0.086 C 
BRANCH  41  42
ATOM     42  NZ  LYS A   4       6.991  39.178  -8.387  0.00  0.00    +0.380 N 
ATOM     43  HZ1 LYS A   4       6.243  38.725  -7.824  0.00  0.00    -0.089 HD
ATOM     44  HZ2 LYS A   4       7.922  38.903  -8.014  0.00  0.00    -0.089 HD
ATOM     45  HZ3 LYS A   4       6.911  38.877  -9.379  0.00  0.00    -0.089 HD
ENDBRANCH  41  42
ENDBRANCH  40  41
ENDBRANCH  39  40
ENDBRANCH  38  39
ENDBRANCH  27  38
ENDBRANCH   2  27
TORSDOF 21
REMARK  Name = ../refined-set-2016/1yc1/1yc1_pocket.pdb
REMARK  232 active torsions:
REMARK  status: ('A' for Active; 'I' for Inactive)
REMARK    1  A    between atoms: _1  and  _3
REMARK    2  A    between atoms: _3  and  _4
REMARK    3  A    between atoms: _3  and  _6
REMARK    4  A    between atoms: _6  and  _7
REMARK    5  A    between atoms: _13  and  _15
REMARK    6  A    between atoms: _15  and  _16
REMARK    7  A    between atoms: _15  and  _18
REMARK    8  A    between atoms: _18  and  _19
REMARK    9  A    between atoms: _19  and  _20
REMARK   10  A    between atoms: _23  and  _25
REMARK   11  A    between atoms: _25  and  _26
REMARK   12  A    between atoms: _25  and  _28
REMARK   13  A    between atoms: _28  and  _29
REMARK   14  A    between atoms: _32  and  _34
REMARK   15  A    between atoms: _34  and  _35
REMARK   16  A    between atoms: _34  and  _37
REMARK   17  A    between atoms: _37  and  _38
REMARK   18  A    between atoms: _41  and  _43
REMARK   19  A    between atoms: _43  and  _44
REMARK   20  A    between atoms: _43  and  _46
REMARK   21  A    between atoms: _46  and  _47
REMARK   22  A    between atoms: _49  and  _51
REMARK   23  A    between atoms: _51  and  _52
REMARK   24  A    between atoms: _51  and  _54
REMARK   25  A    between atoms: _54  and  _55
REMARK   26  A    between atoms: _60  and  _62
REMARK   27  A    between atoms: _62  and  _63
REMARK   28  A    between atoms: _62  and  _65
REMARK   29  A    between atoms: _65  and  _66
REMARK   30  A    between atoms: _68  and  _70
REMARK   31  A    between atoms: _70  and  _71
REMARK   32  A    between atoms: _70  and  _73
REMARK   33  A    between atoms: _73  and  _74
REMARK   34  A    between atoms: _76  and  _78
REMARK   35  A    between atoms: _78  and  _79
REMARK   36  A    between atoms: _78  and  _81
REMARK   37  A    between atoms: _81  and  _82
REMARK   38  A    between atoms: _85  and  _87
REMARK   39  A    between atoms: _87  and  _88
REMARK   40  A    between atoms: _91  and  _93
REMARK   41  A    between atoms: _93  and  _94
REMARK   42  A    between atoms: _93  and  _96
REMARK   43  A    between atoms: _96  and  _97
REMARK   44  A    between atoms: _100  and  _102
REMARK   45  A    between atoms: _102  and  _103
REMARK   46  A    between atoms: _102  and  _105
REMARK   47  A    between atoms: _105  and  _106
REMARK   48  A    between atoms: _109  and  _111
REMARK   49  A    between atoms: _111  and  _112
REMARK   50  A    between atoms: _111  and  _114
REMARK   51  A    between atoms: _114  and  _115
REMARK   52  A    between atoms: _115  and  _116
REMARK   53  A    between atoms: _116  and  _117
REMARK   54  A    between atoms: _117  and  _118
REMARK   55  A    between atoms: _122  and  _124
REMARK   56  A    between atoms: _124  and  _125
REMARK   57  A    between atoms: _124  and  _127
REMARK   58  A    between atoms: _127  and  _128
REMARK   59  A    between atoms: _131  and  _133
REMARK   60  A    between atoms: _133  and  _134
REMARK   61  A    between atoms: _133  and  _136
REMARK   62  A    between atoms: _136  and  _137
REMARK   63  A    between atoms: _140  and  _142
REMARK   64  A    between atoms: _142  and  _143
REMARK   65  A    between atoms: _142  and  _145
REMARK   66  A    between atoms: _145  and  _146
REMARK   67  A    between atoms: _149  and  _151
REMARK   68  A    between atoms: _151  and  _152
REMARK   69  A    between atoms: _151  and  _154
REMARK   70  A    between atoms: _157  and  _159
REMARK   71  A    between atoms: _159  and  _160
REMARK   72  A    between atoms: _159  and  _162
REMARK   73  A    between atoms: _162  and  _163
REMARK   74  A    between atoms: _166  and  _168
REMARK   75  A    between atoms: _168  and  _169
REMARK   76  A    between atoms: _168  and  _171
REMARK   77  A    between atoms: _171  and  _172
REMARK   78  A    between atoms: _175  and  _177
REMARK   79  A    between atoms: _177  and  _178
REMARK   80  A    between atoms: _180  and  _182
REMARK   81  A    between atoms: _182  and  _183
REMARK   82  A    between atoms: _182  and  _185
REMARK   83  A    between atoms: _185  and  _186
REMARK   84  A    between atoms: _189  and  _191
REMARK   85  A    between atoms: _191  and  _192
REMARK   86  A    between atoms: _194  and  _196
REMARK   87  A    between atoms: _196  and  _197
REMARK   88  A    between atoms: _196  and  _199
REMARK   89  A    between atoms: _199  and  _200
REMARK   90  A    between atoms: _200  and  _201
REMARK   91  A    between atoms: _203  and  _205
REMARK   92  A    between atoms: _205  and  _206
REMARK   93  A    between atoms: _205  and  _208
REMARK   94  A    between atoms: _208  and  _209
REMARK   95  A    between atoms: _212  and  _214
REMARK   96  A    between atoms: _214  and  _215
REMARK   97  A    between atoms: _214  and  _217
REMARK   98  A    between atoms: _217  and  _218
REMARK   99  A    between atoms: _221  and  _223
REMARK  100  A    between atoms: _223  and  _224
REMARK  101  A    between atoms: _223  and  _226
REMARK  102  A    between atoms: _226  and  _227
REMARK  103  A    between atoms: _230  and  _232
REMARK  104  A    between atoms: _232  and  _233
REMARK  105  A    between atoms: _232  and  _235
REMARK  106  A    between atoms: _235  and  _236
REMARK  107  A    between atoms: _241  and  _243
REMARK  108  A    between atoms: _243  and  _244
REMARK  109  A    between atoms: _243  and  _246
REMARK  110  A    between atoms: _246  and  _247
REMARK  111  A    between atoms: _252  and  _254
REMARK  112  A    between atoms: _254  and  _255
REMARK  113  A    between atoms: _254  and  _257
REMARK  114  A    between atoms: _257  and  _258
REMARK  115  A    between atoms: _261  and  _263
REMARK  116  A    between atoms: _263  and  _264
REMARK  117  A    between atoms: _263  and  _266
REMARK  118  A    between atoms: _266  and  _267
REMARK  119  A    between atoms: _270  and  _272
REMARK  120  A    between atoms: _272  and  _273
REMARK  121  A    between atoms: _272  and  _275
REMARK  122  A    between atoms: _275  and  _276
REMARK  123  A    between atoms: _279  and  _281
REMARK  124  A    between atoms: _281  and  _282
REMARK  125  A    between atoms: _285  and  _287
REMARK  126  A    between atoms: _287  and  _288
REMARK  127  A    between atoms: _287  and  _290
REMARK  128  A    between atoms: _290  and  _291
REMARK  129  A    between atoms: _291  and  _292
REMARK  130  A    between atoms: _292  and  _293
REMARK  131  A    between atoms: _293  and  _294
REMARK  132  A    between atoms: _298  and  _300
REMARK  133  A    between atoms: _300  and  _301
REMARK  134  A    between atoms: _300  and  _303
REMARK  135  A    between atoms: _303  and  _304
REMARK  136  A    between atoms: _306  and  _308
REMARK  137  A    between atoms: _308  and  _309
REMARK  138  A    between atoms: _311  and  _313
REMARK  139  A    between atoms: _313  and  _314
REMARK  140  A    between atoms: _313  and  _316
REMARK  141  A    between atoms: _316  and  _317
REMARK  142  A    between atoms: _323  and  _325
REMARK  143  A    between atoms: _325  and  _326
REMARK  144  A    between atoms: _328  and  _330
REMARK  145  A    between atoms: _330  and  _331
REMARK  146  A    between atoms: _330  and  _333
REMARK  147  A    between atoms: _336  and  _338
REMARK  148  A    between atoms: _338  and  _339
REMARK  149  A    between atoms: _341  and  _343
REMARK  150  A    between atoms: _343  and  _344
REMARK  151  A    between atoms: _343  and  _346
REMARK  152  A    between atoms: _346  and  _347
REMARK  153  A    between atoms: _353  and  _355
REMARK  154  A    between atoms: _355  and  _356
REMARK  155  A    between atoms: _355  and  _358
REMARK  156  A    between atoms: _358  and  _359
REMARK  157  A    between atoms: _364  and  _365
REMARK  158  A    between atoms: _367  and  _369
REMARK  159  A    between atoms: _369  and  _370
REMARK  160  A    between atoms: _373  and  _375
REMARK  161  A    between atoms: _375  and  _376
REMARK  162  A    between atoms: _375  and  _378
REMARK  163  A    between atoms: _378  and  _379
REMARK  164  A    between atoms: _384  and  _385
REMARK  165  A    between atoms: _387  and  _389
REMARK  166  A    between atoms: _389  and  _390
REMARK  167  A    between atoms: _389  and  _392
REMARK  168  A    between atoms: _395  and  _397
REMARK  169  A    between atoms: _397  and  _398
REMARK  170  A    between atoms: _397  and  _400
REMARK  171  A    between atoms: _400  and  _401
REMARK  172  A    between atoms: _404  and  _406
REMARK  173  A    between atoms: _406  and  _407
REMARK  174  A    between atoms: _406  and  _409
REMARK  175  A    between atoms: _412  and  _414
REMARK  176  A    between atoms: _414  and  _415
REMARK  177  A    between atoms: _414  and  _417
REMARK  178  A    between atoms: _417  and  _418
REMARK  179  A    between atoms: _421  and  _423
REMARK  180  A    between atoms: _423  and  _424
REMARK  181  A    between atoms: _423  and  _426
REMARK  182  A    between atoms: _426  and  _427
REMARK  183  A    between atoms: _430  and  _432
REMARK  184  A    between atoms: _432  and  _433
REMARK  185  A    between atoms: _432  and  _435
REMARK  186  A    between atoms: _435  and  _436
REMARK  187  A    between atoms: _436  and  _437
REMARK  188  A    between atoms: _437  and  _438
REMARK  189  A    between atoms: _438  and  _439
REMARK  190  A    between atoms: _443  and  _445
REMARK  191  A    between atoms: _445  and  _446
REMARK  192  A    between atoms: _445  and  _448
REMARK  193  A    between atoms: _448  and  _449
REMARK  194  A    between atoms: _454  and  _456
REMARK  195  A    between atoms: _456  and  _457
REMARK  196  A    between atoms: _456  and  _459
REMARK  197  A    between atoms: _459  and  _460
REMARK  198  A    between atoms: _470  and  _472
REMARK  199  A    between atoms: _472  and  _473
REMARK  200  A    between atoms: _472  and  _475
REMARK  201  A    between atoms: _475  and  _476
REMARK  202  A    between atoms: _476  and  _477
REMARK  203  A    between atoms: _479  and  _481
REMARK  204  A    between atoms: _481  and  _482
REMARK  205  A    between atoms: _481  and  _484
REMARK  206  A    between atoms: _484  and  _485
REMARK  207  A    between atoms: _485  and  _486
REMARK  208  A    between atoms: _486  and  _487
REMARK  209  A    between atoms: _496  and  _498
REMARK  210  A    between atoms: _498  and  _499
REMARK  211  A    between atoms: _501  and  _503
REMARK  212  A    between atoms: _503  and  _504
REMARK  213  A    between atoms: _503  and  _506
REMARK  214  A    between atoms: _506  and  _507
REMARK  215  A    between atoms: _510  and  _512
REMARK  216  A    between atoms: _512  and  _513
REMARK  217  A    between atoms: _512  and  _515
REMARK  218  A    between atoms: _515  and  _516
REMARK  219  A    between atoms: _516  and  _517
REMARK  220  A    between atoms: _517  and  _518
REMARK  221  A    between atoms: _518  and  _519
REMARK  222  A    between atoms: _523  and  _525
REMARK  223  A    between atoms: _525  and  _526
REMARK  224  A    between atoms: _525  and  _528
REMARK  225  A    between atoms: _531  and  _533
REMARK  226  A    between atoms: _533  and  _534
REMARK  227  A    between atoms: _533  and  _536
REMARK  228  A    between atoms: _536  and  _537
REMARK  229  A    between atoms: _540  and  _542
REMARK  230  A    between atoms: _542  and  _543
REMARK  231  A    between atoms: _542  and  _545
REMARK  232  A    between atoms: _545  and  _546
REMARK                            x       y       z     vdW  Elec       q    Type
REMARK                         _______ _______ _______ _____ _____    ______ ____
ROOT
ATOM      1  CA  GLY A   1       3.124  40.659   6.403  0.00  0.00    +0.156 C 
ENDROOT
BRANCH   1   2
ATOM      2  N   GLY A   1       3.831  40.461   7.665  0.00  0.00    -0.238 NA
ATOM      3  H   GLY A   1       3.324  40.464   8.573  0.00  0.00    +0.142 HD
ENDBRANCH   1   2
BRANCH   1   4
ATOM      4  C   GLY A   1       3.388  42.009   5.736  0.00  0.00    +0.226 C 
ATOM      5  O   GLY A   1       3.276  42.142   4.517  0.00  0.00    -0.287 OA
ENDBRANCH   1   4
TORSDOF 2
REMARK  Name = ../refined-set-2016/1yc1/1yc1_pocket.pdb
REMARK  232 active torsions:
REMARK  status: ('A' for Active; 'I' for Inactive)
REMARK    1  A    between atoms: _1  and  _3
REMARK    2  A    between atoms: _3  and  _4
REMARK    3  A    between atoms: _3  and  _6
REMARK    4  A    between atoms: _6  and  _7
REMARK    5  A    between atoms: _13  and  _15
REMARK    6  A    between atoms: _15  and  _16
REMARK    7  A    between atoms: _15  and  _18
REMARK    8  A    between atoms: _18  and  _19
REMARK    9  A    between atoms: _19  and  _20
REMARK   10  A    between atoms: _23  and  _25
REMARK   11  A    between atoms: _25  and  _26
REMARK   12  A    between atoms: _25  and  _28
REMARK   13  A    between atoms: _28  and  _29
REMARK   14  A    between atoms: _32  and  _34
REMARK   15  A    between atoms: _34  and  _35
REMARK   16  A    between atoms: _34  and  _37
REMARK   17  A    between atoms: _37  and  _38
REMARK   18  A    between atoms: _41  and  _43
REMARK   19  A    between atoms: _43  and  _44
REMARK   20  A    between atoms: _43  and  _46
REMARK   21  A    between atoms: _46  and  _47
REMARK   22  A    between atoms: _49  and  _51
REMARK   23  A    between atoms: _51  and  _52
REMARK   24  A    between atoms: _51  and  _54
REMARK   25  A    between atoms: _54  and  _55
REMARK   26  A    between atoms: _60  and  _62
REMARK   27  A    between atoms: _62  and  _63
REMARK   28  A    between atoms: _62  and  _65
REMARK   29  A    between atoms: _65  and  _66
REMARK   30  A    between atoms: _68  and  _70
REMARK   31  A    between atoms: _70  and  _71
REMARK   32  A    between atoms: _70  and  _73
REMARK   33  A    between atoms: _73  and  _74
REMARK   34  A    between atoms: _76  and  _78
REMARK   35  A    between atoms: _78  and  _79
REMARK   36  A    between atoms: _78  and  _81
REMARK   37  A    between atoms: _81  and  _82
REMARK   38  A    between atoms: _85  and  _87
REMARK   39  A    between atoms: _87  and  _88
REMARK   40  A    between atoms: _91  and  _93
REMARK   41  A    between atoms: _93  and  _94
REMARK   42  A    between atoms: _93  and  _96
REMARK   43  A    between atoms: _96  and  _97
REMARK   44  A    between atoms: _100  and  _102
REMARK   45  A    between atoms: _102  and  _103
REMARK   46  A    between atoms: _102  and  _105
REMARK   47  A    between atoms: _105  and  _106
REMARK   48  A    between atoms: _109  and  _111
REMARK   49  A    between atoms: _111  and  _112
REMARK   50  A    between atoms: _111  and  _114
REMARK   51  A    between atoms: _114  and  _115
REMARK   52  A    between atoms: _115  and  _116
REMARK   53  A    between atoms: _116  and  _117
REMARK   54  A    between atoms: _117  and  _118
REMARK   55  A    between atoms: _122  and  _124
REMARK   56  A    between atoms: _124  and  _125
REMARK   57  A    between atoms: _124  and  _127
REMARK   58  A    between atoms: _127  and  _128
REMARK   59  A    between atoms: _131  and  _133
REMARK   60  A    between atoms: _133  and  _134
REMARK   61  A    between atoms: _133  and  _136
REMARK   62  A    between atoms: _136  and  _137
REMARK   63  A    between atoms: _140  and  _142
REMARK   64  A    between atoms: _142  and  _143
REMARK   65  A    between atoms: _142  and  _145
REMARK   66  A    between atoms: _145  and  _146
REMARK   67  A    between atoms: _149  and  _151
REMARK   68  A    between atoms: _151  and  _152
REMARK   69  A    between atoms: _151  and  _154
REMARK   70  A    between atoms: _157  and  _159
REMARK   71  A    between atoms: _159  and  _160
REMARK   72  A    between atoms: _159  and  _162
REMARK   73  A    between atoms: _162  and  _163
REMARK   74  A    between atoms: _166  and  _168
REMARK   75  A    between atoms: _168  and  _169
REMARK   76  A    between atoms: _168  and  _171
REMARK   77  A    between atoms: _171  and  _172
REMARK   78  A    between atoms: _175  and  _177
REMARK   79  A    between atoms: _177  and  _178
REMARK   80  A    between atoms: _180  and  _182
REMARK   81  A    between atoms: _182  and  _183
REMARK   82  A    between atoms: _182  and  _185
REMARK   83  A    between atoms: _185  and  _186
REMARK   84  A    between atoms: _189  and  _191
REMARK   85  A    between atoms: _191  and  _192
REMARK   86  A    between atoms: _194  and  _196
REMARK   87  A    between atoms: _196  and  _197
REMARK   88  A    between atoms: _196  and  _199
REMARK   89  A    between atoms: _199  and  _200
REMARK   90  A    between atoms: _200  and  _201
REMARK   91  A    between atoms: _203  and  _205
REMARK   92  A    between atoms: _205  and  _206
REMARK   93  A    between atoms: _205  and  _208
REMARK   94  A    between atoms: _208  and  _209
REMARK   95  A    between atoms: _212  and  _214
REMARK   96  A    between atoms: _214  and  _215
REMARK   97  A    between atoms: _214  and  _217
REMARK   98  A    between atoms: _217  and  _218
REMARK   99  A    between atoms: _221  and  _223
REMARK  100  A    between atoms: _223  and  _224
REMARK  101  A    between atoms: _223  and  _226
REMARK  102  A    between atoms: _226  and  _227
REMARK  103  A    between atoms: _230  and  _232
REMARK  104  A    between atoms: _232  and  _233
REMARK  105  A    between atoms: _232  and  _235
REMARK  106  A    between atoms: _235  and  _236
REMARK  107  A    between atoms: _241  and  _243
REMARK  108  A    between atoms: _243  and  _244
REMARK  109  A    between atoms: _243  and  _246
REMARK  110  A    between atoms: _246  and  _247
REMARK  111  A    between atoms: _252  and  _254
REMARK  112  A    between atoms: _254  and  _255
REMARK  113  A    between atoms: _254  and  _257
REMARK  114  A    between atoms: _257  and  _258
REMARK  115  A    between atoms: _261  and  _263
REMARK  116  A    between atoms: _263  and  _264
REMARK  117  A    between atoms: _263  and  _266
REMARK  118  A    between atoms: _266  and  _267
REMARK  119  A    between atoms: _270  and  _272
REMARK  120  A    between atoms: _272  and  _273
REMARK  121  A    between atoms: _272  and  _275
REMARK  122  A    between atoms: _275  and  _276
REMARK  123  A    between atoms: _279  and  _281
REMARK  124  A    between atoms: _281  and  _282
REMARK  125  A    between atoms: _285  and  _287
REMARK  126  A    between atoms: _287  and  _288
REMARK  127  A    between atoms: _287  and  _290
REMARK  128  A    between atoms: _290  and  _291
REMARK  129  A    between atoms: _291  and  _292
REMARK  130  A    between atoms: _292  and  _293
REMARK  131  A    between atoms: _293  and  _294
REMARK  132  A    between atoms: _298  and  _300
REMARK  133  A    between atoms: _300  and  _301
REMARK  134  A    between atoms: _300  and  _303
REMARK  135  A    between atoms: _303  and  _304
REMARK  136  A    between atoms: _306  and  _308
REMARK  137  A    between atoms: _308  and  _309
REMARK  138  A    between atoms: _311  and  _313
REMARK  139  A    between atoms: _313  and  _314
REMARK  140  A    between atoms: _313  and  _316
REMARK  141  A    between atoms: _316  and  _317
REMARK  142  A    between atoms: _323  and  _325
REMARK  143  A    between atoms: _325  and  _326
REMARK  144  A    between atoms: _328  and  _330
REMARK  145  A    between atoms: _330  and  _331
REMARK  146  A    between atoms: _330  and  _333
REMARK  147  A    between atoms: _336  and  _338
REMARK  148  A    between atoms: _338  and  _339
REMARK  149  A    between atoms: _341  and  _343
REMARK  150  A    between atoms: _343  and  _344
REMARK  151  A    between atoms: _343  and  _346
REMARK  152  A    between atoms: _346  and  _347
REMARK  153  A    between atoms: _353  and  _355
REMARK  154  A    between atoms: _355  and  _356
REMARK  155  A    between atoms: _355  and  _358
REMARK  156  A    between atoms: _358  and  _359
REMARK  157  A    between atoms: _364  and  _365
REMARK  158  A    between atoms: _367  and  _369
REMARK  159  A    between atoms: _369  and  _370
REMARK  160  A    between atoms: _373  and  _375
REMARK  161  A    between atoms: _375  and  _376
REMARK  162  A    between atoms: _375  and  _378
REMARK  163  A    between atoms: _378  and  _379
REMARK  164  A    between atoms: _384  and  _385
REMARK  165  A    between atoms: _387  and  _389
REMARK  166  A    between atoms: _389  and  _390
REMARK  167  A    between atoms: _389  and  _392
REMARK  168  A    between atoms: _395  and  _397
REMARK  169  A    between atoms: _397  and  _398
REMARK  170  A    between atoms: _397  and  _400
REMARK  171  A    between atoms: _400  and  _401
REMARK  172  A    between atoms: _404  and  _406
REMARK  173  A    between atoms: _406  and  _407
REMARK  174  A    between atoms: _406  and  _409
REMARK  175  A    between atoms: _412  and  _414
REMARK  176  A    between atoms: _414  and  _415
REMARK  177  A    between atoms: _414  and  _417
REMARK  178  A    between atoms: _417  and  _418
REMARK  179  A    between atoms: _421  and  _423
REMARK  180  A    between atoms: _423  and  _424
REMARK  181  A    between atoms: _423  and  _426
REMARK  182  A    between atoms: _426  and  _427
REMARK  183  A    between atoms: _430  and  _432
REMARK  184  A    between atoms: _432  and  _433
REMARK  185  A    between atoms: _432  and  _435
REMARK  186  A    between atoms: _435  and  _436
REMARK  187  A    between atoms: _436  and  _437
REMARK  188  A    between atoms: _437  and  _438
REMARK  189  A    between atoms: _438  and  _439
REMARK  190  A    between atoms: _443  and  _445
REMARK  191  A    between atoms: _445  and  _446
REMARK  192  A    between atoms: _445  and  _448
REMARK  193  A    between atoms: _448  and  _449
REMARK  194  A    between atoms: _454  and  _456
REMARK  195  A    between atoms: _456  and  _457
REMARK  196  A    between atoms: _456  and  _459
REMARK  197  A    between atoms: _459  and  _460
REMARK  198  A    between atoms: _470  and  _472
REMARK  199  A    between atoms: _472  and  _473
REMARK  200  A    between atoms: _472  and  _475
REMARK  201  A    between atoms: _475  and  _476
REMARK  202  A    between atoms: _476  and  _477
REMARK  203  A    between atoms: _479  and  _481
REMARK  204  A    between atoms: _481  and  _482
REMARK  205  A    between atoms: _481  and  _484
REMARK  206  A    between atoms: _484  and  _485
REMARK  207  A    between atoms: _485  and  _486
REMARK  208  A    between atoms: _486  and  _487
REMARK  209  A    between atoms: _496  and  _498
REMARK  210  A    between atoms: _498  and  _499
REMARK  211  A    between atoms: _501  and  _503
REMARK  212  A    between atoms: _503  and  _504
REMARK  213  A    between atoms: _503  and  _506
REMARK  214  A    between atoms: _506  and  _507
REMARK  215  A    between atoms: _510  and  _512
REMARK  216  A    between atoms: _512  and  _513
REMARK  217  A    between atoms: _512  and  _515
REMARK  218  A    between atoms: _515  and  _516
REMARK  219  A    between atoms: _516  and  _517
REMARK  220  A    between atoms: _517  and  _518
REMARK  221  A    between atoms: _518  and  _519
REMARK  222  A    between atoms: _523  and  _525
REMARK  223  A    between atoms: _525  and  _526
REMARK  224  A    between atoms: _525  and  _528
REMARK  225  A    between atoms: _531  and  _533
REMARK  226  A    between atoms: _533  and  _534
REMARK  227  A    between atoms: _533  and  _536
REMARK  228  A    between atoms: _536  and  _537
REMARK  229  A    between atoms: _540  and  _542
REMARK  230  A    between atoms: _542  and  _543
REMARK  231  A    between atoms: _542  and  _545
REMARK  232  A    between atoms: _545  and  _546
REMARK                            x       y       z     vdW  Elec       q    Type
REMARK                         _______ _______ _______ _____ _____    ______ ____
ROOT
ATOM      1  CA  GLY A   4       3.638  36.754   5.478  0.00  0.00    +0.176 C 
ENDROOT
BRANCH   1   2
ATOM      2  C   GLY A   4       3.455  35.264   5.344  0.00  0.00    +0.243 C 
ATOM      3  O   GLY A   4       3.172  34.595   6.336  0.00  0.00    -0.273 OA
ATOM      4  N   PHE A   5       3.634  34.755   4.152  0.00  0.00    -0.297 N 
ATOM      5  H   PHE A   5       3.866  35.376   3.351  0.00  0.00    +0.150 HD
BRANCH   4   6
ATOM      6  CA  PHE A   5       3.505  33.284   3.943  0.00  0.00    +0.153 C 
BRANCH   6   7
ATOM      7  C   PHE A   5       4.271  32.465   4.987  0.00  0.00    +0.241 C 
ATOM      8  O   PHE A   5       3.779  31.445   5.460  0.00  0.00    -0.273 OA
ATOM      9  N   TYR A   6       5.492  32.903   5.338  0.00  0.00    -0.298 N 
ATOM     10  H   TYR A   6       5.850  33.821   5.007  0.00  0.00    +0.150 HD
BRANCH   9  11
ATOM     11  CA  TYR A   6       6.283  32.059   6.185  0.00  0.00    +0.141 C 
BRANCH  11  12
ATOM     12  C   TYR A   6       5.782  31.942   7.585  0.00  0.00    +0.227 C 
ATOM     13  O   TYR A   6       6.264  31.063   8.320  0.00  0.00    -0.286 OA
ENDBRANCH  11  12
BRANCH  11  14
ATOM     14  CB  TYR A   6       7.755  32.514   6.144  0.00  0.00    +0.054 C 
BRANCH  14  15
ATOM     15  CG  TYR A   6       8.308  32.518   4.745  0.00  0.00    -0.020 A 
ATOM     16  CD2 TYR A   6       8.825  31.365   4.151  0.00  0.00    -0.001 A 
ATOM     17  CE2 TYR A   6       9.232  31.366   2.793  0.00  0.00    +0.036 A 
ATOM     18  CZ  TYR A   6       9.144  32.515   2.049  0.00  0.00    +0.134 A 
ATOM     19  CE1 TYR A   6       8.657  33.686   2.611  0.00  0.00    +0.036 A 
ATOM     20  CD1 TYR A   6       8.233  33.673   3.963  0.00  0.00    -0.001 A 
BRANCH  18  21
ATOM     21  OH  TYR A   6       9.563  32.521   0.744  0.00  0.00    -0.506 OA
ATOM     22  HH  TYR A   6       9.879  31.616   0.496  0.00  0.00    +0.292 HD
ENDBRANCH  18  21
ENDBRANCH  14  15
ENDBRANCH  11  14
ENDBRANCH   9  11
ENDBRANCH   6   7
BRANCH   6  23
ATOM     23  CB  PHE A   5       4.086  32.928   2.571  0.00  0.00    +0.055 C 
BRANCH  23  24
ATOM     24  CG  PHE A   5       4.292  31.450   2.391  0.00  0.00    -0.020 A 
ATOM     25  CD2 PHE A   5       5.620  30.925   2.369  0.00  0.00    -0.004 A 
ATOM     26  CE2 PHE A   5       5.827  29.520   2.245  0.00  0.00    -0.000 A 
ATOM     27  CZ  PHE A   5       4.702  28.678   2.145  0.00  0.00    -0.000 A 
ATOM     28  CE1 PHE A   5       3.409  29.187   2.170  0.00  0.00    -0.000 A 
ATOM     29  CD1 PHE A   5       3.199  30.583   2.296  0.00  0.00    -0.004 A 
ENDBRANCH  23  24
ENDBRANCH   6  23
ENDBRANCH   4   6
ENDBRANCH   1   2
BRANCH   1  32
ATOM     30  C   VAL A   3       5.874  36.886   4.616  0.00  0.00    +0.241 C 
ATOM     31  O   VAL A   3       6.237  35.907   5.268  0.00  0.00    -0.273 OA
ATOM     32  N   GLY A   4       4.616  37.343   4.593  0.00  0.00    -0.295 N 
ATOM     33  H   GLY A   4       4.346  38.112   3.947  0.00  0.00    +0.150 HD
BRANCH  30  34
ATOM     34  CA  VAL A   3       6.860  37.634   3.654  0.00  0.00    +0.149 C 
BRANCH  34  36
ATOM     35  C   GLY A   2       6.296  39.501   2.240  0.00  0.00    +0.243 C 
ATOM     36  N   VAL A   3       6.455  39.029   3.463  0.00  0.00    -0.297 N 
ATOM     37  H   VAL A   3       6.294  39.644   4.286  0.00  0.00    +0.150 HD
ATOM     38  O   GLY A   2       6.473  38.815   1.219  0.00  0.00    -0.273 OA
BRANCH  35  39
ATOM     39  CA  GLY A   2       5.918  40.957   2.146  0.00  0.00    +0.176 C 
BRANCH  39  41
ATOM     40  C   PHE A   1       7.362  42.187   3.655  0.00  0.00    +0.239 C 
ATOM     41  N   GLY A   2       6.123  41.748   3.339  0.00  0.00    -0.296 N 
ATOM     42  H   GLY A   2       5.317  41.979   3.954  0.00  0.00    +0.150 HD
ATOM     43  O   PHE A   1       8.408  41.790   3.076  0.00  0.00    -0.274 OA
BRANCH  40  44
ATOM     44  CA  PHE A   1       7.444  43.128   4.855  0.00  0.00    +0.149 C 
BRANCH  44  45
ATOM     45  N   PHE A   1       6.160  43.226   5.544  0.00  0.00    -0.238 NA
ATOM     46  H   PHE A   1       5.841  42.462   6.173  0.00  0.00    +0.142 HD
ENDBRANCH  44  45
BRANCH  44  47
ATOM     47  CB  PHE A   1       8.559  42.680   5.809  0.00  0.00    +0.053 C 
BRANCH  47  48
ATOM     48  CG  PHE A   1       8.970  43.736   6.795  0.00  0.00    -0.020 A 
ATOM     49  CD2 PHE A   1       8.250  43.934   7.966  0.00  0.00    -0.004 A 
ATOM     50  CE2 PHE A   1       8.656  44.936   8.903  0.00  0.00    -0.000 A 
ATOM     51  CZ  PHE A   1       9.773  45.714   8.638  0.00  0.00    -0.000 A 
ATOM     52  CE1 PHE A   1      10.503  45.526   7.447  0.00  0.00    -0.000 A 
ATOM     53  CD1 PHE A   1      10.094  44.543   6.539  0.00  0.00    -0.004 A 
ENDBRANCH  47  48
ENDBRANCH  44  47
ENDBRANCH  40  44
ENDBRANCH  39  41
ENDBRANCH  35  39
ENDBRANCH  34  36
BRANCH  34  54
ATOM     54  CB  VAL A   3       8.306  37.508   4.226  0.00  0.00    +0.027 C 
ATOM     55  CG2 VAL A   3       8.637  38.657   5.233  0.00  0.00    +0.002 C 
ATOM     56  CG1 VAL A   3       9.255  37.435   3.092  0.00  0.00    +0.002 C 
ENDBRANCH  34  54
ENDBRANCH  30  34
ENDBRANCH   1  32
TORSDOF 20
REMARK  Name = ../refined-set-2016/1yc1/1yc1_pocket.pdb
REMARK  232 active torsions:
REMARK  status: ('A' for Active; 'I' for Inactive)
REMARK    1  A    between atoms: _1  and  _3
REMARK    2  A    between atoms: _3  and  _4
REMARK    3  A    between atoms: _3  and  _6
REMARK    4  A    between atoms: _6  and  _7
REMARK    5  A    between atoms: _13  and  _15
REMARK    6  A    between atoms: _15  and  _16
REMARK    7  A    between atoms: _15  and  _18
REMARK    8  A    between atoms: _18  and  _19
REMARK    9  A    between atoms: _19  and  _20
REMARK   10  A    between atoms: _23  and  _25
REMARK   11  A    between atoms: _25  and  _26
REMARK   12  A    between atoms: _25  and  _28
REMARK   13  A    between atoms: _28  and  _29
REMARK   14  A    between atoms: _32  and  _34
REMARK   15  A    between atoms: _34  and  _35
REMARK   16  A    between atoms: _34  and  _37
REMARK   17  A    between atoms: _37  and  _38
REMARK   18  A    between atoms: _41  and  _43
REMARK   19  A    between atoms: _43  and  _44
REMARK   20  A    between atoms: _43  and  _46
REMARK   21  A    between atoms: _46  and  _47
REMARK   22  A    between atoms: _49  and  _51
REMARK   23  A    between atoms: _51  and  _52
REMARK   24  A    between atoms: _51  and  _54
REMARK   25  A    between atoms: _54  and  _55
REMARK   26  A    between atoms: _60  and  _62
REMARK   27  A    between atoms: _62  and  _63
REMARK   28  A    between atoms: _62  and  _65
REMARK   29  A    between atoms: _65  and  _66
REMARK   30  A    between atoms: _68  and  _70
REMARK   31  A    between atoms: _70  and  _71
REMARK   32  A    between atoms: _70  and  _73
REMARK   33  A    between atoms: _73  and  _74
REMARK   34  A    between atoms: _76  and  _78
REMARK   35  A    between atoms: _78  and  _79
REMARK   36  A    between atoms: _78  and  _81
REMARK   37  A    between atoms: _81  and  _82
REMARK   38  A    between atoms: _85  and  _87
REMARK   39  A    between atoms: _87  and  _88
REMARK   40  A    between atoms: _91  and  _93
REMARK   41  A    between atoms: _93  and  _94
REMARK   42  A    between atoms: _93  and  _96
REMARK   43  A    between atoms: _96  and  _97
REMARK   44  A    between atoms: _100  and  _102
REMARK   45  A    between atoms: _102  and  _103
REMARK   46  A    between atoms: _102  and  _105
REMARK   47  A    between atoms: _105  and  _106
REMARK   48  A    between atoms: _109  and  _111
REMARK   49  A    between atoms: _111  and  _112
REMARK   50  A    between atoms: _111  and  _114
REMARK   51  A    between atoms: _114  and  _115
REMARK   52  A    between atoms: _115  and  _116
REMARK   53  A    between atoms: _116  and  _117
REMARK   54  A    between atoms: _117  and  _118
REMARK   55  A    between atoms: _122  and  _124
REMARK   56  A    between atoms: _124  and  _125
REMARK   57  A    between atoms: _124  and  _127
REMARK   58  A    between atoms: _127  and  _128
REMARK   59  A    between atoms: _131  and  _133
REMARK   60  A    between atoms: _133  and  _134
REMARK   61  A    between atoms: _133  and  _136
REMARK   62  A    between atoms: _136  and  _137
REMARK   63  A    between atoms: _140  and  _142
REMARK   64  A    between atoms: _142  and  _143
REMARK   65  A    between atoms: _142  and  _145
REMARK   66  A    between atoms: _145  and  _146
REMARK   67  A    between atoms: _149  and  _151
REMARK   68  A    between atoms: _151  and  _152
REMARK   69  A    between atoms: _151  and  _154
REMARK   70  A    between atoms: _157  and  _159
REMARK   71  A    between atoms: _159  and  _160
REMARK   72  A    between atoms: _159  and  _162
REMARK   73  A    between atoms: _162  and  _163
REMARK   74  A    between atoms: _166  and  _168
REMARK   75  A    between atoms: _168  and  _169
REMARK   76  A    between atoms: _168  and  _171
REMARK   77  A    between atoms: _171  and  _172
REMARK   78  A    between atoms: _175  and  _177
REMARK   79  A    between atoms: _177  and  _178
REMARK   80  A    between atoms: _180  and  _182
REMARK   81  A    between atoms: _182  and  _183
REMARK   82  A    between atoms: _182  and  _185
REMARK   83  A    between atoms: _185  and  _186
REMARK   84  A    between atoms: _189  and  _191
REMARK   85  A    between atoms: _191  and  _192
REMARK   86  A    between atoms: _194  and  _196
REMARK   87  A    between atoms: _196  and  _197
REMARK   88  A    between atoms: _196  and  _199
REMARK   89  A    between atoms: _199  and  _200
REMARK   90  A    between atoms: _200  and  _201
REMARK   91  A    between atoms: _203  and  _205
REMARK   92  A    between atoms: _205  and  _206
REMARK   93  A    between atoms: _205  and  _208
REMARK   94  A    between atoms: _208  and  _209
REMARK   95  A    between atoms: _212  and  _214
REMARK   96  A    between atoms: _214  and  _215
REMARK   97  A    between atoms: _214  and  _217
REMARK   98  A    between atoms: _217  and  _218
REMARK   99  A    between atoms: _221  and  _223
REMARK  100  A    between atoms: _223  and  _224
REMARK  101  A    between atoms: _223  and  _226
REMARK  102  A    between atoms: _226  and  _227
REMARK  103  A    between atoms: _230  and  _232
REMARK  104  A    between atoms: _232  and  _233
REMARK  105  A    between atoms: _232  and  _235
REMARK  106  A    between atoms: _235  and  _236
REMARK  107  A    between atoms: _241  and  _243
REMARK  108  A    between atoms: _243  and  _244
REMARK  109  A    between atoms: _243  and  _246
REMARK  110  A    between atoms: _246  and  _247
REMARK  111  A    between atoms: _252  and  _254
REMARK  112  A    between atoms: _254  and  _255
REMARK  113  A    between atoms: _254  and  _257
REMARK  114  A    between atoms: _257  and  _258
REMARK  115  A    between atoms: _261  and  _263
REMARK  116  A    between atoms: _263  and  _264
REMARK  117  A    between atoms: _263  and  _266
REMARK  118  A    between atoms: _266  and  _267
REMARK  119  A    between atoms: _270  and  _272
REMARK  120  A    between atoms: _272  and  _273
REMARK  121  A    between atoms: _272  and  _275
REMARK  122  A    between atoms: _275  and  _276
REMARK  123  A    between atoms: _279  and  _281
REMARK  124  A    between atoms: _281  and  _282
REMARK  125  A    between atoms: _285  and  _287
REMARK  126  A    between atoms: _287  and  _288
REMARK  127  A    between atoms: _287  and  _290
REMARK  128  A    between atoms: _290  and  _291
REMARK  129  A    between atoms: _291  and  _292
REMARK  130  A    between atoms: _292  and  _293
REMARK  131  A    between atoms: _293  and  _294
REMARK  132  A    between atoms: _298  and  _300
REMARK  133  A    between atoms: _300  and  _301
REMARK  134  A    between atoms: _300  and  _303
REMARK  135  A    between atoms: _303  and  _304
REMARK  136  A    between atoms: _306  and  _308
REMARK  137  A    between atoms: _308  and  _309
REMARK  138  A    between atoms: _311  and  _313
REMARK  139  A    between atoms: _313  and  _314
REMARK  140  A    between atoms: _313  and  _316
REMARK  141  A    between atoms: _316  and  _317
REMARK  142  A    between atoms: _323  and  _325
REMARK  143  A    between atoms: _325  and  _326
REMARK  144  A    between atoms: _328  and  _330
REMARK  145  A    between atoms: _330  and  _331
REMARK  146  A    between atoms: _330  and  _333
REMARK  147  A    between atoms: _336  and  _338
REMARK  148  A    between atoms: _338  and  _339
REMARK  149  A    between atoms: _341  and  _343
REMARK  150  A    between atoms: _343  and  _344
REMARK  151  A    between atoms: _343  and  _346
REMARK  152  A    between atoms: _346  and  _347
REMARK  153  A    between atoms: _353  and  _355
REMARK  154  A    between atoms: _355  and  _356
REMARK  155  A    between atoms: _355  and  _358
REMARK  156  A    between atoms: _358  and  _359
REMARK  157  A    between atoms: _364  and  _365
REMARK  158  A    between atoms: _367  and  _369
REMARK  159  A    between atoms: _369  and  _370
REMARK  160  A    between atoms: _373  and  _375
REMARK  161  A    between atoms: _375  and  _376
REMARK  162  A    between atoms: _375  and  _378
REMARK  163  A    between atoms: _378  and  _379
REMARK  164  A    between atoms: _384  and  _385
REMARK  165  A    between atoms: _387  and  _389
REMARK  166  A    between atoms: _389  and  _390
REMARK  167  A    between atoms: _389  and  _392
REMARK  168  A    between atoms: _395  and  _397
REMARK  169  A    between atoms: _397  and  _398
REMARK  170  A    between atoms: _397  and  _400
REMARK  171  A    between atoms: _400  and  _401
REMARK  172  A    between atoms: _404  and  _406
REMARK  173  A    between atoms: _406  and  _407
REMARK  174  A    between atoms: _406  and  _409
REMARK  175  A    between atoms: _412  and  _414
REMARK  176  A    between atoms: _414  and  _415
REMARK  177  A    between atoms: _414  and  _417
REMARK  178  A    between atoms: _417  and  _418
REMARK  179  A    between atoms: _421  and  _423
REMARK  180  A    between atoms: _423  and  _424
REMARK  181  A    between atoms: _423  and  _426
REMARK  182  A    between atoms: _426  and  _427
REMARK  183  A    between atoms: _430  and  _432
REMARK  184  A    between atoms: _432  and  _433
REMARK  185  A    between atoms: _432  and  _435
REMARK  186  A    between atoms: _435  and  _436
REMARK  187  A    between atoms: _436  and  _437
REMARK  188  A    between atoms: _437  and  _438
REMARK  189  A    between atoms: _438  and  _439
REMARK  190  A    between atoms: _443  and  _445
REMARK  191  A    between atoms: _445  and  _446
REMARK  192  A    between atoms: _445  and  _448
REMARK  193  A    between atoms: _448  and  _449
REMARK  194  A    between atoms: _454  and  _456
REMARK  195  A    between atoms: _456  and  _457
REMARK  196  A    between atoms: _456  and  _459
REMARK  197  A    between atoms: _459  and  _460
REMARK  198  A    between atoms: _470  and  _472
REMARK  199  A    between atoms: _472  and  _473
REMARK  200  A    between atoms: _472  and  _475
REMARK  201  A    between atoms: _475  and  _476
REMARK  202  A    between atoms: _476  and  _477
REMARK  203  A    between atoms: _479  and  _481
REMARK  204  A    between atoms: _481  and  _482
REMARK  205  A    between atoms: _481  and  _484
REMARK  206  A    between atoms: _484  and  _485
REMARK  207  A    between atoms: _485  and  _486
REMARK  208  A    between atoms: _486  and  _487
REMARK  209  A    between atoms: _496  and  _498
REMARK  210  A    between atoms: _498  and  _499
REMARK  211  A    between atoms: _501  and  _503
REMARK  212  A    between atoms: _503  and  _504
REMARK  213  A    between atoms: _503  and  _506
REMARK  214  A    between atoms: _506  and  _507
REMARK  215  A    between atoms: _510  and  _512
REMARK  216  A    between atoms: _512  and  _513
REMARK  217  A    between atoms: _512  and  _515
REMARK  218  A    between atoms: _515  and  _516
REMARK  219  A    between atoms: _516  and  _517
REMARK  220  A    between atoms: _517  and  _518
REMARK  221  A    between atoms: _518  and  _519
REMARK  222  A    between atoms: _523  and  _525
REMARK  223  A    between atoms: _525  and  _526
REMARK  224  A    between atoms: _525  and  _528
REMARK  225  A    between atoms: _531  and  _533
REMARK  226  A    between atoms: _533  and  _534
REMARK  227  A    between atoms: _533  and  _536
REMARK  228  A    between atoms: _536  and  _537
REMARK  229  A    between atoms: _540  and  _542
REMARK  230  A    between atoms: _542  and  _543
REMARK  231  A    between atoms: _542  and  _545
REMARK  232  A    between atoms: _545  and  _546
REMARK                            x       y       z     vdW  Elec       q    Type
REMARK                         _______ _______ _______ _____ _____    ______ ____
ROOT
ATOM      1  CA  TYR A   2       5.695  27.805   9.974  0.00  0.00    +0.141 C 
ENDROOT
BRANCH   1   4
ATOM      2  C   ALA A   1       3.480  28.430   9.188  0.00  0.00    +0.238 C 
ATOM      3  O   ALA A   1       2.946  27.467   9.803  0.00  0.00    -0.274 OA
ATOM      4  N   TYR A   2       4.804  28.665   9.199  0.00  0.00    -0.298 N 
ATOM      5  H   TYR A   2       5.194  29.461   8.655  0.00  0.00    +0.150 HD
BRANCH   2   6
ATOM      6  CA  ALA A   1       2.638  29.381   8.331  0.00  0.00    +0.145 C 
ATOM      7  CB  ALA A   1       2.548  28.816   6.917  0.00  0.00    +0.028 C 
BRANCH   6   8
ATOM      8  N   ALA A   1       3.252  30.672   8.286  0.00  0.00    -0.238 NA
ATOM      9  H   ALA A   1       3.478  31.110   7.370  0.00  0.00    +0.142 HD
ENDBRANCH   6   8
ENDBRANCH   2   6
ENDBRANCH   1   4
BRANCH   1  10
ATOM     10  C   TYR A   2       5.639  27.994  11.483  0.00  0.00    +0.227 C 
ATOM     11  O   TYR A   2       6.222  27.206  12.231  0.00  0.00    -0.286 OA
ENDBRANCH   1  10
BRANCH   1  12
ATOM     12  CB  TYR A   2       7.127  27.872   9.410  0.00  0.00    +0.054 C 
BRANCH  12  13
ATOM     13  CG  TYR A   2       7.224  27.141   8.071  0.00  0.00    -0.020 A 
ATOM     14  CD2 TYR A   2       7.426  25.776   8.006  0.00  0.00    -0.001 A 
ATOM     15  CE2 TYR A   2       7.440  25.103   6.754  0.00  0.00    +0.036 A 
ATOM     16  CZ  TYR A   2       7.231  25.837   5.601  0.00  0.00    +0.134 A 
ATOM     17  CE1 TYR A   2       7.029  27.217   5.669  0.00  0.00    +0.036 A 
ATOM     18  CD1 TYR A   2       7.036  27.845   6.887  0.00  0.00    -0.001 A 
BRANCH  16  19
ATOM     19  OH  TYR A   2       7.208  25.247   4.371  0.00  0.00    -0.506 OA
ATOM     20  HH  TYR A   2       7.364  24.274   4.470  0.00  0.00    +0.292 HD
ENDBRANCH  16  19
ENDBRANCH  12  13
ENDBRANCH   1  12
TORSDOF 7
REMARK  Name = ../refined-set-2016/1yc1/1yc1_pocket.pdb
REMARK  232 active torsions:
REMARK  status: ('A' for Active; 'I' for Inactive)
REMARK    1  A    between atoms: _1  and  _3
REMARK    2  A    between atoms: _3  and  _4
REMARK    3  A    between atoms: _3  and  _6
REMARK    4  A    between atoms: _6  and  _7
REMARK    5  A    between atoms: _13  and  _15
REMARK    6  A    between atoms: _15  and  _16
REMARK    7  A    between atoms: _15  and  _18
REMARK    8  A    between atoms: _18  and  _19
REMARK    9  A    between atoms: _19  and  _20
REMARK   10  A    between atoms: _23  and  _25
REMARK   11  A    between atoms: _25  and  _26
REMARK   12  A    between atoms: _25  and  _28
REMARK   13  A    between atoms: _28  and  _29
REMARK   14  A    between atoms: _32  and  _34
REMARK   15  A    between atoms: _34  and  _35
REMARK   16  A    between atoms: _34  and  _37
REMARK   17  A    between atoms: _37  and  _38
REMARK   18  A    between atoms: _41  and  _43
REMARK   19  A    between atoms: _43  and  _44
REMARK   20  A    between atoms: _43  and  _46
REMARK   21  A    between atoms: _46  and  _47
REMARK   22  A    between atoms: _49  and  _51
REMARK   23  A    between atoms: _51  and  _52
REMARK   24  A    between atoms: _51  and  _54
REMARK   25  A    between atoms: _54  and  _55
REMARK   26  A    between atoms: _60  and  _62
REMARK   27  A    between atoms: _62  and  _63
REMARK   28  A    between atoms: _62  and  _65
REMARK   29  A    between atoms: _65  and  _66
REMARK   30  A    between atoms: _68  and  _70
REMARK   31  A    between atoms: _70  and  _71
REMARK   32  A    between atoms: _70  and  _73
REMARK   33  A    between atoms: _73  and  _74
REMARK   34  A    between atoms: _76  and  _78
REMARK   35  A    between atoms: _78  and  _79
REMARK   36  A    between atoms: _78  and  _81
REMARK   37  A    between atoms: _81  and  _82
REMARK   38  A    between atoms: _85  and  _87
REMARK   39  A    between atoms: _87  and  _88
REMARK   40  A    between atoms: _91  and  _93
REMARK   41  A    between atoms: _93  and  _94
REMARK   42  A    between atoms: _93  and  _96
REMARK   43  A    between atoms: _96  and  _97
REMARK   44  A    between atoms: _100  and  _102
REMARK   45  A    between atoms: _102  and  _103
REMARK   46  A    between atoms: _102  and  _105
REMARK   47  A    between atoms: _105  and  _106
REMARK   48  A    between atoms: _109  and  _111
REMARK   49  A    between atoms: _111  and  _112
REMARK   50  A    between atoms: _111  and  _114
REMARK   51  A    between atoms: _114  and  _115
REMARK   52  A    between atoms: _115  and  _116
REMARK   53  A    between atoms: _116  and  _117
REMARK   54  A    between atoms: _117  and  _118
REMARK   55  A    between atoms: _122  and  _124
REMARK   56  A    between atoms: _124  and  _125
REMARK   57  A    between atoms: _124  and  _127
REMARK   58  A    between atoms: _127  and  _128
REMARK   59  A    between atoms: _131  and  _133
REMARK   60  A    between atoms: _133  and  _134
REMARK   61  A    between atoms: _133  and  _136
REMARK   62  A    between atoms: _136  and  _137
REMARK   63  A    between atoms: _140  and  _142
REMARK   64  A    between atoms: _142  and  _143
REMARK   65  A    between atoms: _142  and  _145
REMARK   66  A    between atoms: _145  and  _146
REMARK   67  A    between atoms: _149  and  _151
REMARK   68  A    between atoms: _151  and  _152
REMARK   69  A    between atoms: _151  and  _154
REMARK   70  A    between atoms: _157  and  _159
REMARK   71  A    between atoms: _159  and  _160
REMARK   72  A    between atoms: _159  and  _162
REMARK   73  A    between atoms: _162  and  _163
REMARK   74  A    between atoms: _166  and  _168
REMARK   75  A    between atoms: _168  and  _169
REMARK   76  A    between atoms: _168  and  _171
REMARK   77  A    between atoms: _171  and  _172
REMARK   78  A    between atoms: _175  and  _177
REMARK   79  A    between atoms: _177  and  _178
REMARK   80  A    between atoms: _180  and  _182
REMARK   81  A    between atoms: _182  and  _183
REMARK   82  A    between atoms: _182  and  _185
REMARK   83  A    between atoms: _185  and  _186
REMARK   84  A    between atoms: _189  and  _191
REMARK   85  A    between atoms: _191  and  _192
REMARK   86  A    between atoms: _194  and  _196
REMARK   87  A    between atoms: _196  and  _197
REMARK   88  A    between atoms: _196  and  _199
REMARK   89  A    between atoms: _199  and  _200
REMARK   90  A    between atoms: _200  and  _201
REMARK   91  A    between atoms: _203  and  _205
REMARK   92  A    between atoms: _205  and  _206
REMARK   93  A    between atoms: _205  and  _208
REMARK   94  A    between atoms: _208  and  _209
REMARK   95  A    between atoms: _212  and  _214
REMARK   96  A    between atoms: _214  and  _215
REMARK   97  A    between atoms: _214  and  _217
REMARK   98  A    between atoms: _217  and  _218
REMARK   99  A    between atoms: _221  and  _223
REMARK  100  A    between atoms: _223  and  _224
REMARK  101  A    between atoms: _223  and  _226
REMARK  102  A    between atoms: _226  and  _227
REMARK  103  A    between atoms: _230  and  _232
REMARK  104  A    between atoms: _232  and  _233
REMARK  105  A    between atoms: _232  and  _235
REMARK  106  A    between atoms: _235  and  _236
REMARK  107  A    between atoms: _241  and  _243
REMARK  108  A    between atoms: _243  and  _244
REMARK  109  A    between atoms: _243  and  _246
REMARK  110  A    between atoms: _246  and  _247
REMARK  111  A    between atoms: _252  and  _254
REMARK  112  A    between atoms: _254  and  _255
REMARK  113  A    between atoms: _254  and  _257
REMARK  114  A    between atoms: _257  and  _258
REMARK  115  A    between atoms: _261  and  _263
REMARK  116  A    between atoms: _263  and  _264
REMARK  117  A    between atoms: _263  and  _266
REMARK  118  A    between atoms: _266  and  _267
REMARK  119  A    between atoms: _270  and  _272
REMARK  120  A    between atoms: _272  and  _273
REMARK  121  A    between atoms: _272  and  _275
REMARK  122  A    between atoms: _275  and  _276
REMARK  123  A    between atoms: _279  and  _281
REMARK  124  A    between atoms: _281  and  _282
REMARK  125  A    between atoms: _285  and  _287
REMARK  126  A    between atoms: _287  and  _288
REMARK  127  A    between atoms: _287  and  _290
REMARK  128  A    between atoms: _290  and  _291
REMARK  129  A    between atoms: _291  and  _292
REMARK  130  A    between atoms: _292  and  _293
REMARK  131  A    between atoms: _293  and  _294
REMARK  132  A    between atoms: _298  and  _300
REMARK  133  A    between atoms: _300  and  _301
REMARK  134  A    between atoms: _300  and  _303
REMARK  135  A    between atoms: _303  and  _304
REMARK  136  A    between atoms: _306  and  _308
REMARK  137  A    between atoms: _308  and  _309
REMARK  138  A    between atoms: _311  and  _313
REMARK  139  A    between atoms: _313  and  _314
REMARK  140  A    between atoms: _313  and  _316
REMARK  141  A    between atoms: _316  and  _317
REMARK  142  A    between atoms: _323  and  _325
REMARK  143  A    between atoms: _325  and  _326
REMARK  144  A    between atoms: _328  and  _330
REMARK  145  A    between atoms: _330  and  _331
REMARK  146  A    between atoms: _330  and  _333
REMARK  147  A    between atoms: _336  and  _338
REMARK  148  A    between atoms: _338  and  _339
REMARK  149  A    between atoms: _341  and  _343
REMARK  150  A    between atoms: _343  and  _344
REMARK  151  A    between atoms: _343  and  _346
REMARK  152  A    between atoms: _346  and  _347
REMARK  153  A    between atoms: _353  and  _355
REMARK  154  A    between atoms: _355  and  _356
REMARK  155  A    between atoms: _355  and  _358
REMARK  156  A    between atoms: _358  and  _359
REMARK  157  A    between atoms: _364  and  _365
REMARK  158  A    between atoms: _367  and  _369
REMARK  159  A    between atoms: _369  and  _370
REMARK  160  A    between atoms: _373  and  _375
REMARK  161  A    between atoms: _375  and  _376
REMARK  162  A    between atoms: _375  and  _378
REMARK  163  A    between atoms: _378  and  _379
REMARK  164  A    between atoms: _384  and  _385
REMARK  165  A    between atoms: _387  and  _389
REMARK  166  A    between atoms: _389  and  _390
REMARK  167  A    between atoms: _389  and  _392
REMARK  168  A    between atoms: _395  and  _397
REMARK  169  A    between atoms: _397  and  _398
REMARK  170  A    between atoms: _397  and  _400
REMARK  171  A    between atoms: _400  and  _401
REMARK  172  A    between atoms: _404  and  _406
REMARK  173  A    between atoms: _406  and  _407
REMARK  174  A    between atoms: _406  and  _409
REMARK  175  A    between atoms: _412  and  _414
REMARK  176  A    between atoms: _414  and  _415
REMARK  177  A    between atoms: _414  and  _417
REMARK  178  A    between atoms: _417  and  _418
REMARK  179  A    between atoms: _421  and  _423
REMARK  180  A    between atoms: _423  and  _424
REMARK  181  A    between atoms: _423  and  _426
REMARK  182  A    between atoms: _426  and  _427
REMARK  183  A    between atoms: _430  and  _432
REMARK  184  A    between atoms: _432  and  _433
REMARK  185  A    between atoms: _432  and  _435
REMARK  186  A    between atoms: _435  and  _436
REMARK  187  A    between atoms: _436  and  _437
REMARK  188  A    between atoms: _437  and  _438
REMARK  189  A    between atoms: _438  and  _439
REMARK  190  A    between atoms: _443  and  _445
REMARK  191  A    between atoms: _445  and  _446
REMARK  192  A    between atoms: _445  and  _448
REMARK  193  A    between atoms: _448  and  _449
REMARK  194  A    between atoms: _454  and  _456
REMARK  195  A    between atoms: _456  and  _457
REMARK  196  A    between atoms: _456  and  _459
REMARK  197  A    between atoms: _459  and  _460
REMARK  198  A    between atoms: _470  and  _472
REMARK  199  A    between atoms: _472  and  _473
REMARK  200  A    between atoms: _472  and  _475
REMARK  201  A    between atoms: _475  and  _476
REMARK  202  A    between atoms: _476  and  _477
REMARK  203  A    between atoms: _479  and  _481
REMARK  204  A    between atoms: _481  and  _482
REMARK  205  A    between atoms: _481  and  _484
REMARK  206  A    between atoms: _484  and  _485
REMARK  207  A    between atoms: _485  and  _486
REMARK  208  A    between atoms: _486  and  _487
REMARK  209  A    between atoms: _496  and  _498
REMARK  210  A    between atoms: _498  and  _499
REMARK  211  A    between atoms: _501  and  _503
REMARK  212  A    between atoms: _503  and  _504
REMARK  213  A    between atoms: _503  and  _506
REMARK  214  A    between atoms: _506  and  _507
REMARK  215  A    between atoms: _510  and  _512
REMARK  216  A    between atoms: _512  and  _513
REMARK  217  A    between atoms: _512  and  _515
REMARK  218  A    between atoms: _515  and  _516
REMARK  219  A    between atoms: _516  and  _517
REMARK  220  A    between atoms: _517  and  _518
REMARK  221  A    between atoms: _518  and  _519
REMARK  222  A    between atoms: _523  and  _525
REMARK  223  A    between atoms: _525  and  _526
REMARK  224  A    between atoms: _525  and  _528
REMARK  225  A    between atoms: _531  and  _533
REMARK  226  A    between atoms: _533  and  _534
REMARK  227  A    between atoms: _533  and  _536
REMARK  228  A    between atoms: _536  and  _537
REMARK  229  A    between atoms: _540  and  _542
REMARK  230  A    between atoms: _542  and  _543
REMARK  231  A    between atoms: _542  and  _545
REMARK  232  A    between atoms: _545  and  _546
REMARK                            x       y       z     vdW  Elec       q    Type
REMARK                         _______ _______ _______ _____ _____    ______ ____
ROOT
ATOM      1  C   ILE A   4      -1.017  24.509  -5.655  0.00  0.00    +0.241 C 
ATOM      2  O   ILE A   4      -1.846  25.239  -5.110  0.00  0.00    -0.273 OA
ATOM      3  N   THR A   5      -0.587  24.733  -6.907  0.00  0.00    -0.295 N 
ATOM      4  H   THR A   5       0.052  24.061  -7.378  0.00  0.00    +0.150 HD
ENDROOT
BRANCH   3   5
ATOM      5  CA  THR A   5      -1.035  25.940  -7.593  0.00  0.00    +0.176 C 
BRANCH   5   6
ATOM      6  C   THR A   5      -1.211  25.648  -9.097  0.00  0.00    +0.243 C 
ATOM      7  O   THR A   5      -0.554  24.761  -9.640  0.00  0.00    -0.273 OA
ATOM      8  N   LYS A   6      -2.129  26.374  -9.703  0.00  0.00    -0.297 N 
ATOM      9  H   LYS A   6      -2.638  27.104  -9.164  0.00  0.00    +0.150 HD
BRANCH   8  10
ATOM     10  CA  LYS A   6      -2.453  26.172 -11.141  0.00  0.00    +0.149 C 
BRANCH  10  11
ATOM     11  C   LYS A   6      -2.693  27.580 -11.670  0.00  0.00    +0.241 C 
ATOM     12  O   LYS A   6      -3.634  28.252 -11.218  0.00  0.00    -0.273 OA
ATOM     13  N   HIS A   7      -1.899  27.979 -12.654  0.00  0.00    -0.298 N 
ATOM     14  H   HIS A   7      -1.175  27.320 -13.004  0.00  0.00    +0.150 HD
BRANCH  13  15
ATOM     15  CA  HIS A   7      -1.993  29.300 -13.269  0.00  0.00    +0.143 C 
BRANCH  15  16
ATOM     16  C   HIS A   7      -2.497  28.980 -14.676  0.00  0.00    +0.227 C 
ATOM     17  O   HIS A   7      -2.187  27.923 -15.184  0.00  0.00    -0.286 OA
ENDBRANCH  15  16
BRANCH  15  18
ATOM     18  CB  HIS A   7      -0.613  29.936 -13.396  0.00  0.00    +0.075 C 
BRANCH  18  19
ATOM     19  CG  HIS A   7      -0.629  31.298 -14.005  0.00  0.00    +0.082 A 
ATOM     20  ND1 HIS A   7      -0.544  32.452 -13.263  0.00  0.00    -0.227 NA
ATOM     21  CE1 HIS A   7      -0.552  33.505 -14.064  0.00  0.00    +0.199 A 
ATOM     22  NE2 HIS A   7      -0.644  33.064 -15.309  0.00  0.00    -0.221 NA
ATOM     23  CD2 HIS A   7      -0.699  31.691 -15.296  0.00  0.00    +0.115 A 
ENDBRANCH  18  19
ENDBRANCH  15  18
ENDBRANCH  13  15
ENDBRANCH  10  11
BRANCH  10  24
ATOM     24  CB  LYS A   6      -3.745  25.370 -11.263  0.00  0.00    +0.029 C 
BRANCH  24  25
ATOM     25  CG  LYS A   6      -4.198  25.194 -12.729  0.00  0.00    +0.000 C 
BRANCH  25  26
ATOM     26  CD  LYS A   6      -3.191  24.482 -13.579  0.00  0.00    -0.024 C 
BRANCH  26  27
ATOM     27  CE  LYS A   6      -3.698  24.336 -15.069  0.00  0.00    -0.086 C 
BRANCH  27  28
ATOM     28  NZ  LYS A   6      -3.801  25.653 -15.773  0.00  0.00    +0.380 N 
ATOM     29  HZ1 LYS A   6      -4.471  26.265 -15.265  0.00  0.00    -0.089 HD
ATOM     30  HZ2 LYS A   6      -2.865  26.106 -15.796  0.00  0.00    -0.089 HD
ATOM     31  HZ3 LYS A   6      -4.137  25.500 -16.745  0.00  0.00    -0.089 HD
ENDBRANCH  27  28
ENDBRANCH  26  27
ENDBRANCH  25  26
ENDBRANCH  24  25
ENDBRANCH  10  24
ENDBRANCH   8  10
ENDBRANCH   5   6
BRANCH   5  32
ATOM     32  CB  THR A   5      -0.041  27.080  -7.342  0.00  0.00    +0.137 C 
ATOM     33  CG2 THR A   5       1.254  26.828  -8.062  0.00  0.00    +0.034 C 
BRANCH  32  34
ATOM     34  OG1 THR A   5      -0.557  28.326  -7.820  0.00  0.00    -0.382 OA
ATOM     35  HG1 THR A   5      -1.403  28.533  -7.350  0.00  0.00    +0.210 HD
ENDBRANCH  32  34
ENDBRANCH   5  32
ENDBRANCH   3   5
BRANCH   1  36
ATOM     36  CA  ILE A   4      -0.456  23.307  -4.903  0.00  0.00    +0.149 C 
BRANCH  36  38
ATOM     37  C   VAL A   3       1.170  24.028  -3.251  0.00  0.00    +0.241 C 
ATOM     38  N   ILE A   4      -0.101  23.861  -3.586  0.00  0.00    -0.297 N 
ATOM     39  H   ILE A   4      -0.852  24.123  -2.915  0.00  0.00    +0.150 HD
ATOM     40  O   VAL A   3       2.102  23.771  -3.986  0.00  0.00    -0.273 OA
BRANCH  37  41
ATOM     41  CA  VAL A   3       1.413  24.607  -1.872  0.00  0.00    +0.149 C 
BRANCH  41  44
ATOM     42  C   THR A   2       1.652  23.135   0.034  0.00  0.00    +0.243 C 
ATOM     43  O   THR A   2       0.596  23.550   0.558  0.00  0.00    -0.273 OA
ATOM     44  N   VAL A   3       2.134  23.580  -1.109  0.00  0.00    -0.297 N 
ATOM     45  H   VAL A   3       3.031  23.201  -1.473  0.00  0.00    +0.150 HD
BRANCH  42  46
ATOM     46  CA  THR A   2       2.475  22.004   0.731  0.00  0.00    +0.176 C 
BRANCH  46  49
ATOM     47  C   VAL A   1       3.672  22.678   2.753  0.00  0.00    +0.238 C 
ATOM     48  O   VAL A   1       4.758  22.590   2.205  0.00  0.00    -0.274 OA
ATOM     49  N   THR A   2       2.536  22.410   2.124  0.00  0.00    -0.295 N 
ATOM     50  H   THR A   2       1.645  22.495   2.654  0.00  0.00    +0.150 HD
BRANCH  47  51
ATOM     51  CA  VAL A   1       3.525  23.206   4.181  0.00  0.00    +0.145 C 
BRANCH  51  52
ATOM     52  CB  VAL A   1       3.802  24.726   4.209  0.00  0.00    +0.025 C 
ATOM     53  CG2 VAL A   1       3.714  25.208   5.669  0.00  0.00    +0.002 C 
ATOM     54  CG1 VAL A   1       2.735  25.467   3.339  0.00  0.00    +0.002 C 
ENDBRANCH  51  52
BRANCH  51  55
ATOM     55  N   VAL A   1       4.533  22.451   4.955  0.00  0.00    -0.238 NA
ATOM     56  H   VAL A   1       5.518  22.419   4.622  0.00  0.00    +0.142 HD
ENDBRANCH  51  55
ENDBRANCH  47  51
ENDBRANCH  46  49
BRANCH  46  57
ATOM     57  CB  THR A   2       1.686  20.691   0.591  0.00  0.00    +0.137 C 
ATOM     58  CG2 THR A   2       1.755  20.233  -0.846  0.00  0.00    +0.034 C 
BRANCH  57  59
ATOM     59  OG1 THR A   2       2.294  19.695   1.411  0.00  0.00    -0.382 OA
ATOM     60  HG1 THR A   2       3.230  19.556   1.120  0.00  0.00    +0.210 HD
ENDBRANCH  57  59
ENDBRANCH  46  57
ENDBRANCH  42  46
ENDBRANCH  41  44
BRANCH  41  61
ATOM     61  CB  VAL A   3       2.240  25.893  -1.987  0.00  0.00    +0.027 C 
ATOM     62  CG2 VAL A   3       2.446  26.487  -0.608  0.00  0.00    +0.002 C 
ATOM     63  CG1 VAL A   3       1.485  26.918  -2.856  0.00  0.00    +0.002 C 
ENDBRANCH  41  61
ENDBRANCH  37  41
ENDBRANCH  36  38
BRANCH  36  64
ATOM     64  CB  ILE A   4      -1.453  22.193  -4.723  0.00  0.00    +0.027 C 
ATOM     65  CG2 ILE A   4      -1.923  21.723  -6.100  0.00  0.00    +0.002 C 
BRANCH  64  66
ATOM     66  CG1 ILE A   4      -0.738  21.007  -4.012  0.00  0.00    +0.002 C 
ATOM     67  CD1 ILE A   4      -1.663  19.888  -3.611  0.00  0.00    +0.000 C 
ENDBRANCH  64  66
ENDBRANCH  36  64
ENDBRANCH   1  36
TORSDOF 29
REMARK  Name = ../refined-set-2016/1yc1/1yc1_pocket.pdb
REMARK  232 active torsions:
REMARK  status: ('A' for Active; 'I' for Inactive)
REMARK    1  A    between atoms: _1  and  _3
REMARK    2  A    between atoms: _3  and  _4
REMARK    3  A    between atoms: _3  and  _6
REMARK    4  A    between atoms: _6  and  _7
REMARK    5  A    between atoms: _13  and  _15
REMARK    6  A    between atoms: _15  and  _16
REMARK    7  A    between atoms: _15  and  _18
REMARK    8  A    between atoms: _18  and  _19
REMARK    9  A    between atoms: _19  and  _20
REMARK   10  A    between atoms: _23  and  _25
REMARK   11  A    between atoms: _25  and  _26
REMARK   12  A    between atoms: _25  and  _28
REMARK   13  A    between atoms: _28  and  _29
REMARK   14  A    between atoms: _32  and  _34
REMARK   15  A    between atoms: _34  and  _35
REMARK   16  A    between atoms: _34  and  _37
REMARK   17  A    between atoms: _37  and  _38
REMARK   18  A    between atoms: _41  and  _43
REMARK   19  A    between atoms: _43  and  _44
REMARK   20  A    between atoms: _43  and  _46
REMARK   21  A    between atoms: _46  and  _47
REMARK   22  A    between atoms: _49  and  _51
REMARK   23  A    between atoms: _51  and  _52
REMARK   24  A    between atoms: _51  and  _54
REMARK   25  A    between atoms: _54  and  _55
REMARK   26  A    between atoms: _60  and  _62
REMARK   27  A    between atoms: _62  and  _63
REMARK   28  A    between atoms: _62  and  _65
REMARK   29  A    between atoms: _65  and  _66
REMARK   30  A    between atoms: _68  and  _70
REMARK   31  A    between atoms: _70  and  _71
REMARK   32  A    between atoms: _70  and  _73
REMARK   33  A    between atoms: _73  and  _74
REMARK   34  A    between atoms: _76  and  _78
REMARK   35  A    between atoms: _78  and  _79
REMARK   36  A    between atoms: _78  and  _81
REMARK   37  A    between atoms: _81  and  _82
REMARK   38  A    between atoms: _85  and  _87
REMARK   39  A    between atoms: _87  and  _88
REMARK   40  A    between atoms: _91  and  _93
REMARK   41  A    between atoms: _93  and  _94
REMARK   42  A    between atoms: _93  and  _96
REMARK   43  A    between atoms: _96  and  _97
REMARK   44  A    between atoms: _100  and  _102
REMARK   45  A    between atoms: _102  and  _103
REMARK   46  A    between atoms: _102  and  _105
REMARK   47  A    between atoms: _105  and  _106
REMARK   48  A    between atoms: _109  and  _111
REMARK   49  A    between atoms: _111  and  _112
REMARK   50  A    between atoms: _111  and  _114
REMARK   51  A    between atoms: _114  and  _115
REMARK   52  A    between atoms: _115  and  _116
REMARK   53  A    between atoms: _116  and  _117
REMARK   54  A    between atoms: _117  and  _118
REMARK   55  A    between atoms: _122  and  _124
REMARK   56  A    between atoms: _124  and  _125
REMARK   57  A    between atoms: _124  and  _127
REMARK   58  A    between atoms: _127  and  _128
REMARK   59  A    between atoms: _131  and  _133
REMARK   60  A    between atoms: _133  and  _134
REMARK   61  A    between atoms: _133  and  _136
REMARK   62  A    between atoms: _136  and  _137
REMARK   63  A    between atoms: _140  and  _142
REMARK   64  A    between atoms: _142  and  _143
REMARK   65  A    between atoms: _142  and  _145
REMARK   66  A    between atoms: _145  and  _146
REMARK   67  A    between atoms: _149  and  _151
REMARK   68  A    between atoms: _151  and  _152
REMARK   69  A    between atoms: _151  and  _154
REMARK   70  A    between atoms: _157  and  _159
REMARK   71  A    between atoms: _159  and  _160
REMARK   72  A    between atoms: _159  and  _162
REMARK   73  A    between atoms: _162  and  _163
REMARK   74  A    between atoms: _166  and  _168
REMARK   75  A    between atoms: _168  and  _169
REMARK   76  A    between atoms: _168  and  _171
REMARK   77  A    between atoms: _171  and  _172
REMARK   78  A    between atoms: _175  and  _177
REMARK   79  A    between atoms: _177  and  _178
REMARK   80  A    between atoms: _180  and  _182
REMARK   81  A    between atoms: _182  and  _183
REMARK   82  A    between atoms: _182  and  _185
REMARK   83  A    between atoms: _185  and  _186
REMARK   84  A    between atoms: _189  and  _191
REMARK   85  A    between atoms: _191  and  _192
REMARK   86  A    between atoms: _194  and  _196
REMARK   87  A    between atoms: _196  and  _197
REMARK   88  A    between atoms: _196  and  _199
REMARK   89  A    between atoms: _199  and  _200
REMARK   90  A    between atoms: _200  and  _201
REMARK   91  A    between atoms: _203  and  _205
REMARK   92  A    between atoms: _205  and  _206
REMARK   93  A    between atoms: _205  and  _208
REMARK   94  A    between atoms: _208  and  _209
REMARK   95  A    between atoms: _212  and  _214
REMARK   96  A    between atoms: _214  and  _215
REMARK   97  A    between atoms: _214  and  _217
REMARK   98  A    between atoms: _217  and  _218
REMARK   99  A    between atoms: _221  and  _223
REMARK  100  A    between atoms: _223  and  _224
REMARK  101  A    between atoms: _223  and  _226
REMARK  102  A    between atoms: _226  and  _227
REMARK  103  A    between atoms: _230  and  _232
REMARK  104  A    between atoms: _232  and  _233
REMARK  105  A    between atoms: _232  and  _235
REMARK  106  A    between atoms: _235  and  _236
REMARK  107  A    between atoms: _241  and  _243
REMARK  108  A    between atoms: _243  and  _244
REMARK  109  A    between atoms: _243  and  _246
REMARK  110  A    between atoms: _246  and  _247
REMARK  111  A    between atoms: _252  and  _254
REMARK  112  A    between atoms: _254  and  _255
REMARK  113  A    between atoms: _254  and  _257
REMARK  114  A    between atoms: _257  and  _258
REMARK  115  A    between atoms: _261  and  _263
REMARK  116  A    between atoms: _263  and  _264
REMARK  117  A    between atoms: _263  and  _266
REMARK  118  A    between atoms: _266  and  _267
REMARK  119  A    between atoms: _270  and  _272
REMARK  120  A    between atoms: _272  and  _273
REMARK  121  A    between atoms: _272  and  _275
REMARK  122  A    between atoms: _275  and  _276
REMARK  123  A    between atoms: _279  and  _281
REMARK  124  A    between atoms: _281  and  _282
REMARK  125  A    between atoms: _285  and  _287
REMARK  126  A    between atoms: _287  and  _288
REMARK  127  A    between atoms: _287  and  _290
REMARK  128  A    between atoms: _290  and  _291
REMARK  129  A    between atoms: _291  and  _292
REMARK  130  A    between atoms: _292  and  _293
REMARK  131  A    between atoms: _293  and  _294
REMARK  132  A    between atoms: _298  and  _300
REMARK  133  A    between atoms: _300  and  _301
REMARK  134  A    between atoms: _300  and  _303
REMARK  135  A    between atoms: _303  and  _304
REMARK  136  A    between atoms: _306  and  _308
REMARK  137  A    between atoms: _308  and  _309
REMARK  138  A    between atoms: _311  and  _313
REMARK  139  A    between atoms: _313  and  _314
REMARK  140  A    between atoms: _313  and  _316
REMARK  141  A    between atoms: _316  and  _317
REMARK  142  A    between atoms: _323  and  _325
REMARK  143  A    between atoms: _325  and  _326
REMARK  144  A    between atoms: _328  and  _330
REMARK  145  A    between atoms: _330  and  _331
REMARK  146  A    between atoms: _330  and  _333
REMARK  147  A    between atoms: _336  and  _338
REMARK  148  A    between atoms: _338  and  _339
REMARK  149  A    between atoms: _341  and  _343
REMARK  150  A    between atoms: _343  and  _344
REMARK  151  A    between atoms: _343  and  _346
REMARK  152  A    between atoms: _346  and  _347
REMARK  153  A    between atoms: _353  and  _355
REMARK  154  A    between atoms: _355  and  _356
REMARK  155  A    between atoms: _355  and  _358
REMARK  156  A    between atoms: _358  and  _359
REMARK  157  A    between atoms: _364  and  _365
REMARK  158  A    between atoms: _367  and  _369
REMARK  159  A    between atoms: _369  and  _370
REMARK  160  A    between atoms: _373  and  _375
REMARK  161  A    between atoms: _375  and  _376
REMARK  162  A    between atoms: _375  and  _378
REMARK  163  A    between atoms: _378  and  _379
REMARK  164  A    between atoms: _384  and  _385
REMARK  165  A    between atoms: _387  and  _389
REMARK  166  A    between atoms: _389  and  _390
REMARK  167  A    between atoms: _389  and  _392
REMARK  168  A    between atoms: _395  and  _397
REMARK  169  A    between atoms: _397  and  _398
REMARK  170  A    between atoms: _397  and  _400
REMARK  171  A    between atoms: _400  and  _401
REMARK  172  A    between atoms: _404  and  _406
REMARK  173  A    between atoms: _406  and  _407
REMARK  174  A    between atoms: _406  and  _409
REMARK  175  A    between atoms: _412  and  _414
REMARK  176  A    between atoms: _414  and  _415
REMARK  177  A    between atoms: _414  and  _417
REMARK  178  A    between atoms: _417  and  _418
REMARK  179  A    between atoms: _421  and  _423
REMARK  180  A    between atoms: _423  and  _424
REMARK  181  A    between atoms: _423  and  _426
REMARK  182  A    between atoms: _426  and  _427
REMARK  183  A    between atoms: _430  and  _432
REMARK  184  A    between atoms: _432  and  _433
REMARK  185  A    between atoms: _432  and  _435
REMARK  186  A    between atoms: _435  and  _436
REMARK  187  A    between atoms: _436  and  _437
REMARK  188  A    between atoms: _437  and  _438
REMARK  189  A    between atoms: _438  and  _439
REMARK  190  A    between atoms: _443  and  _445
REMARK  191  A    between atoms: _445  and  _446
REMARK  192  A    between atoms: _445  and  _448
REMARK  193  A    between atoms: _448  and  _449
REMARK  194  A    between atoms: _454  and  _456
REMARK  195  A    between atoms: _456  and  _457
REMARK  196  A    between atoms: _456  and  _459
REMARK  197  A    between atoms: _459  and  _460
REMARK  198  A    between atoms: _470  and  _472
REMARK  199  A    between atoms: _472  and  _473
REMARK  200  A    between atoms: _472  and  _475
REMARK  201  A    between atoms: _475  and  _476
REMARK  202  A    between atoms: _476  and  _477
REMARK  203  A    between atoms: _479  and  _481
REMARK  204  A    between atoms: _481  and  _482
REMARK  205  A    between atoms: _481  and  _484
REMARK  206  A    between atoms: _484  and  _485
REMARK  207  A    between atoms: _485  and  _486
REMARK  208  A    between atoms: _486  and  _487
REMARK  209  A    between atoms: _496  and  _498
REMARK  210  A    between atoms: _498  and  _499
REMARK  211  A    between atoms: _501  and  _503
REMARK  212  A    between atoms: _503  and  _504
REMARK  213  A    between atoms: _503  and  _506
REMARK  214  A    between atoms: _506  and  _507
REMARK  215  A    between atoms: _510  and  _512
REMARK  216  A    between atoms: _512  and  _513
REMARK  217  A    between atoms: _512  and  _515
REMARK  218  A    between atoms: _515  and  _516
REMARK  219  A    between atoms: _516  and  _517
REMARK  220  A    between atoms: _517  and  _518
REMARK  221  A    between atoms: _518  and  _519
REMARK  222  A    between atoms: _523  and  _525
REMARK  223  A    between atoms: _525  and  _526
REMARK  224  A    between atoms: _525  and  _528
REMARK  225  A    between atoms: _531  and  _533
REMARK  226  A    between atoms: _533  and  _534
REMARK  227  A    between atoms: _533  and  _536
REMARK  228  A    between atoms: _536  and  _537
REMARK  229  A    between atoms: _540  and  _542
REMARK  230  A    between atoms: _542  and  _543
REMARK  231  A    between atoms: _542  and  _545
REMARK  232  A    between atoms: _545  and  _546
REMARK                            x       y       z     vdW  Elec       q    Type
REMARK                         _______ _______ _______ _____ _____    ______ ____
ROOT
ATOM      1  CG  TRP A   1       6.750  25.061  -2.984  0.00  0.00    -0.002 A 
ATOM      2  CD2 TRP A   1       6.762  25.324  -1.571  0.00  0.00    +0.013 A 
ATOM      3  CE3 TRP A   1       5.896  25.004  -0.502  0.00  0.00    +0.001 A 
ATOM      4  CZ3 TRP A   1       6.226  25.415   0.792  0.00  0.00    +0.000 A 
ATOM      5  CH2 TRP A   1       7.405  26.143   1.028  0.00  0.00    +0.001 A 
ATOM      6  CZ2 TRP A   1       8.266  26.480  -0.002  0.00  0.00    +0.017 A 
ATOM      7  CE2 TRP A   1       7.924  26.058  -1.298  0.00  0.00    +0.056 A 
ATOM      8  NE1 TRP A   1       8.581  26.243  -2.487  0.00  0.00    -0.352 N 
ATOM      9  HE1 TRP A   1       9.472  26.766  -2.604  0.00  0.00    +0.166 HD
ATOM     10  CD1 TRP A   1       7.892  25.641  -3.485  0.00  0.00    +0.068 A 
ENDROOT
BRANCH   1  11
ATOM     11  CB  TRP A   1       5.670  24.399  -3.801  0.00  0.00    +0.053 C 
BRANCH  11  12
ATOM     12  CA  TRP A   1       5.687  22.862  -3.815  0.00  0.00    +0.137 C 
BRANCH  12  13
ATOM     13  N   TRP A   1       4.448  22.380  -4.475  0.00  0.00    -0.239 NA
ATOM     14  H   TRP A   1       3.552  22.843  -4.222  0.00  0.00    +0.142 HD
ENDBRANCH  12  13
BRANCH  12  15
ATOM     15  C   TRP A   1       5.541  22.354  -2.365  0.00  0.00    +0.224 C 
ATOM     16  O   TRP A   1       4.413  22.315  -1.807  0.00  0.00    -0.287 OA
ENDBRANCH  12  15
ENDBRANCH  11  12
ENDBRANCH   1  11
TORSDOF 4
REMARK  Name = ../refined-set-2016/1yc1/1yc1_pocket.pdb
REMARK  232 active torsions:
REMARK  status: ('A' for Active; 'I' for Inactive)
REMARK    1  A    between atoms: _1  and  _3
REMARK    2  A    between atoms: _3  and  _4
REMARK    3  A    between atoms: _3  and  _6
REMARK    4  A    between atoms: _6  and  _7
REMARK    5  A    between atoms: _13  and  _15
REMARK    6  A    between atoms: _15  and  _16
REMARK    7  A    between atoms: _15  and  _18
REMARK    8  A    between atoms: _18  and  _19
REMARK    9  A    between atoms: _19  and  _20
REMARK   10  A    between atoms: _23  and  _25
REMARK   11  A    between atoms: _25  and  _26
REMARK   12  A    between atoms: _25  and  _28
REMARK   13  A    between atoms: _28  and  _29
REMARK   14  A    between atoms: _32  and  _34
REMARK   15  A    between atoms: _34  and  _35
REMARK   16  A    between atoms: _34  and  _37
REMARK   17  A    between atoms: _37  and  _38
REMARK   18  A    between atoms: _41  and  _43
REMARK   19  A    between atoms: _43  and  _44
REMARK   20  A    between atoms: _43  and  _46
REMARK   21  A    between atoms: _46  and  _47
REMARK   22  A    between atoms: _49  and  _51
REMARK   23  A    between atoms: _51  and  _52
REMARK   24  A    between atoms: _51  and  _54
REMARK   25  A    between atoms: _54  and  _55
REMARK   26  A    between atoms: _60  and  _62
REMARK   27  A    between atoms: _62  and  _63
REMARK   28  A    between atoms: _62  and  _65
REMARK   29  A    between atoms: _65  and  _66
REMARK   30  A    between atoms: _68  and  _70
REMARK   31  A    between atoms: _70  and  _71
REMARK   32  A    between atoms: _70  and  _73
REMARK   33  A    between atoms: _73  and  _74
REMARK   34  A    between atoms: _76  and  _78
REMARK   35  A    between atoms: _78  and  _79
REMARK   36  A    between atoms: _78  and  _81
REMARK   37  A    between atoms: _81  and  _82
REMARK   38  A    between atoms: _85  and  _87
REMARK   39  A    between atoms: _87  and  _88
REMARK   40  A    between atoms: _91  and  _93
REMARK   41  A    between atoms: _93  and  _94
REMARK   42  A    between atoms: _93  and  _96
REMARK   43  A    between atoms: _96  and  _97
REMARK   44  A    between atoms: _100  and  _102
REMARK   45  A    between atoms: _102  and  _103
REMARK   46  A    between atoms: _102  and  _105
REMARK   47  A    between atoms: _105  and  _106
REMARK   48  A    between atoms: _109  and  _111
REMARK   49  A    between atoms: _111  and  _112
REMARK   50  A    between atoms: _111  and  _114
REMARK   51  A    between atoms: _114  and  _115
REMARK   52  A    between atoms: _115  and  _116
REMARK   53  A    between atoms: _116  and  _117
REMARK   54  A    between atoms: _117  and  _118
REMARK   55  A    between atoms: _122  and  _124
REMARK   56  A    between atoms: _124  and  _125
REMARK   57  A    between atoms: _124  and  _127
REMARK   58  A    between atoms: _127  and  _128
REMARK   59  A    between atoms: _131  and  _133
REMARK   60  A    between atoms: _133  and  _134
REMARK   61  A    between atoms: _133  and  _136
REMARK   62  A    between atoms: _136  and  _137
REMARK   63  A    between atoms: _140  and  _142
REMARK   64  A    between atoms: _142  and  _143
REMARK   65  A    between atoms: _142  and  _145
REMARK   66  A    between atoms: _145  and  _146
REMARK   67  A    between atoms: _149  and  _151
REMARK   68  A    between atoms: _151  and  _152
REMARK   69  A    between atoms: _151  and  _154
REMARK   70  A    between atoms: _157  and  _159
REMARK   71  A    between atoms: _159  and  _160
REMARK   72  A    between atoms: _159  and  _162
REMARK   73  A    between atoms: _162  and  _163
REMARK   74  A    between atoms: _166  and  _168
REMARK   75  A    between atoms: _168  and  _169
REMARK   76  A    between atoms: _168  and  _171
REMARK   77  A    between atoms: _171  and  _172
REMARK   78  A    between atoms: _175  and  _177
REMARK   79  A    between atoms: _177  and  _178
REMARK   80  A    between atoms: _180  and  _182
REMARK   81  A    between atoms: _182  and  _183
REMARK   82  A    between atoms: _182  and  _185
REMARK   83  A    between atoms: _185  and  _186
REMARK   84  A    between atoms: _189  and  _191
REMARK   85  A    between atoms: _191  and  _192
REMARK   86  A    between atoms: _194  and  _196
REMARK   87  A    between atoms: _196  and  _197
REMARK   88  A    between atoms: _196  and  _199
REMARK   89  A    between atoms: _199  and  _200
REMARK   90  A    between atoms: _200  and  _201
REMARK   91  A    between atoms: _203  and  _205
REMARK   92  A    between atoms: _205  and  _206
REMARK   93  A    between atoms: _205  and  _208
REMARK   94  A    between atoms: _208  and  _209
REMARK   95  A    between atoms: _212  and  _214
REMARK   96  A    between atoms: _214  and  _215
REMARK   97  A    between atoms: _214  and  _217
REMARK   98  A    between atoms: _217  and  _218
REMARK   99  A    between atoms: _221  and  _223
REMARK  100  A    between atoms: _223  and  _224
REMARK  101  A    between atoms: _223  and  _226
REMARK  102  A    between atoms: _226  and  _227
REMARK  103  A    between atoms: _230  and  _232
REMARK  104  A    between atoms: _232  and  _233
REMARK  105  A    between atoms: _232  and  _235
REMARK  106  A    between atoms: _235  and  _236
REMARK  107  A    between atoms: _241  and  _243
REMARK  108  A    between atoms: _243  and  _244
REMARK  109  A    between atoms: _243  and  _246
REMARK  110  A    between atoms: _246  and  _247
REMARK  111  A    between atoms: _252  and  _254
REMARK  112  A    between atoms: _254  and  _255
REMARK  113  A    between atoms: _254  and  _257
REMARK  114  A    between atoms: _257  and  _258
REMARK  115  A    between atoms: _261  and  _263
REMARK  116  A    between atoms: _263  and  _264
REMARK  117  A    between atoms: _263  and  _266
REMARK  118  A    between atoms: _266  and  _267
REMARK  119  A    between atoms: _270  and  _272
REMARK  120  A    between atoms: _272  and  _273
REMARK  121  A    between atoms: _272  and  _275
REMARK  122  A    between atoms: _275  and  _276
REMARK  123  A    between atoms: _279  and  _281
REMARK  124  A    between atoms: _281  and  _282
REMARK  125  A    between atoms: _285  and  _287
REMARK  126  A    between atoms: _287  and  _288
REMARK  127  A    between atoms: _287  and  _290
REMARK  128  A    between atoms: _290  and  _291
REMARK  129  A    between atoms: _291  and  _292
REMARK  130  A    between atoms: _292  and  _293
REMARK  131  A    between atoms: _293  and  _294
REMARK  132  A    between atoms: _298  and  _300
REMARK  133  A    between atoms: _300  and  _301
REMARK  134  A    between atoms: _300  and  _303
REMARK  135  A    between atoms: _303  and  _304
REMARK  136  A    between atoms: _306  and  _308
REMARK  137  A    between atoms: _308  and  _309
REMARK  138  A    between atoms: _311  and  _313
REMARK  139  A    between atoms: _313  and  _314
REMARK  140  A    between atoms: _313  and  _316
REMARK  141  A    between atoms: _316  and  _317
REMARK  142  A    between atoms: _323  and  _325
REMARK  143  A    between atoms: _325  and  _326
REMARK  144  A    between atoms: _328  and  _330
REMARK  145  A    between atoms: _330  and  _331
REMARK  146  A    between atoms: _330  and  _333
REMARK  147  A    between atoms: _336  and  _338
REMARK  148  A    between atoms: _338  and  _339
REMARK  149  A    between atoms: _341  and  _343
REMARK  150  A    between atoms: _343  and  _344
REMARK  151  A    between atoms: _343  and  _346
REMARK  152  A    between atoms: _346  and  _347
REMARK  153  A    between atoms: _353  and  _355
REMARK  154  A    between atoms: _355  and  _356
REMARK  155  A    between atoms: _355  and  _358
REMARK  156  A    between atoms: _358  and  _359
REMARK  157  A    between atoms: _364  and  _365
REMARK  158  A    between atoms: _367  and  _369
REMARK  159  A    between atoms: _369  and  _370
REMARK  160  A    between atoms: _373  and  _375
REMARK  161  A    between atoms: _375  and  _376
REMARK  162  A    between atoms: _375  and  _378
REMARK  163  A    between atoms: _378  and  _379
REMARK  164  A    between atoms: _384  and  _385
REMARK  165  A    between atoms: _387  and  _389
REMARK  166  A    between atoms: _389  and  _390
REMARK  167  A    between atoms: _389  and  _392
REMARK  168  A    between atoms: _395  and  _397
REMARK  169  A    between atoms: _397  and  _398
REMARK  170  A    between atoms: _397  and  _400
REMARK  171  A    between atoms: _400  and  _401
REMARK  172  A    between atoms: _404  and  _406
REMARK  173  A    between atoms: _406  and  _407
REMARK  174  A    between atoms: _406  and  _409
REMARK  175  A    between atoms: _412  and  _414
REMARK  176  A    between atoms: _414  and  _415
REMARK  177  A    between atoms: _414  and  _417
REMARK  178  A    between atoms: _417  and  _418
REMARK  179  A    between atoms: _421  and  _423
REMARK  180  A    between atoms: _423  and  _424
REMARK  181  A    between atoms: _423  and  _426
REMARK  182  A    between atoms: _426  and  _427
REMARK  183  A    between atoms: _430  and  _432
REMARK  184  A    between atoms: _432  and  _433
REMARK  185  A    between atoms: _432  and  _435
REMARK  186  A    between atoms: _435  and  _436
REMARK  187  A    between atoms: _436  and  _437
REMARK  188  A    between atoms: _437  and  _438
REMARK  189  A    between atoms: _438  and  _439
REMARK  190  A    between atoms: _443  and  _445
REMARK  191  A    between atoms: _445  and  _446
REMARK  192  A    between atoms: _445  and  _448
REMARK  193  A    between atoms: _448  and  _449
REMARK  194  A    between atoms: _454  and  _456
REMARK  195  A    between atoms: _456  and  _457
REMARK  196  A    between atoms: _456  and  _459
REMARK  197  A    between atoms: _459  and  _460
REMARK  198  A    between atoms: _470  and  _472
REMARK  199  A    between atoms: _472  and  _473
REMARK  200  A    between atoms: _472  and  _475
REMARK  201  A    between atoms: _475  and  _476
REMARK  202  A    between atoms: _476  and  _477
REMARK  203  A    between atoms: _479  and  _481
REMARK  204  A    between atoms: _481  and  _482
REMARK  205  A    between atoms: _481  and  _484
REMARK  206  A    between atoms: _484  and  _485
REMARK  207  A    between atoms: _485  and  _486
REMARK  208  A    between atoms: _486  and  _487
REMARK  209  A    between atoms: _496  and  _498
REMARK  210  A    between atoms: _498  and  _499
REMARK  211  A    between atoms: _501  and  _503
REMARK  212  A    between atoms: _503  and  _504
REMARK  213  A    between atoms: _503  and  _506
REMARK  214  A    between atoms: _506  and  _507
REMARK  215  A    between atoms: _510  and  _512
REMARK  216  A    between atoms: _512  and  _513
REMARK  217  A    between atoms: _512  and  _515
REMARK  218  A    between atoms: _515  and  _516
REMARK  219  A    between atoms: _516  and  _517
REMARK  220  A    between atoms: _517  and  _518
REMARK  221  A    between atoms: _518  and  _519
REMARK  222  A    between atoms: _523  and  _525
REMARK  223  A    between atoms: _525  and  _526
REMARK  224  A    between atoms: _525  and  _528
REMARK  225  A    between atoms: _531  and  _533
REMARK  226  A    between atoms: _533  and  _534
REMARK  227  A    between atoms: _533  and  _536
REMARK  228  A    between atoms: _536  and  _537
REMARK  229  A    between atoms: _540  and  _542
REMARK  230  A    between atoms: _542  and  _543
REMARK  231  A    between atoms: _542  and  _545
REMARK  232  A    between atoms: _545  and  _546
REMARK                            x       y       z     vdW  Elec       q    Type
REMARK                         _______ _______ _______ _____ _____    ______ ____
ROOT
ATOM      1  CA  MET A   1      -7.791  22.632  -9.568  0.00  0.00    +0.134 C 
ENDROOT
BRANCH   1   2
ATOM      2  N   MET A   1      -7.164  21.436 -10.064  0.00  0.00    -0.239 NA
ATOM      3  H   MET A   1      -6.184  21.482 -10.409  0.00  0.00    +0.142 HD
ENDBRANCH   1   2
BRANCH   1   4
ATOM      4  C   MET A   1      -7.918  23.309 -10.920  0.00  0.00    +0.224 C 
ATOM      5  O   MET A   1      -7.036  23.168 -11.760  0.00  0.00    -0.287 OA
ENDBRANCH   1   4
BRANCH   1   6
ATOM      6  CB  MET A   1      -6.815  23.461  -8.698  0.00  0.00    +0.037 C 
BRANCH   6   7
ATOM      7  CG  MET A   1      -6.324  22.769  -7.444  0.00  0.00    +0.059 C 
BRANCH   7   8
ATOM      8  SD  MET A   1      -4.857  23.631  -6.842  0.00  0.00    -0.139 S 
ATOM      9  CE  MET A   1      -5.493  25.211  -6.408  0.00  0.00    +0.069 C 
ENDBRANCH   7   8
ENDBRANCH   6   7
ENDBRANCH   1   6
TORSDOF 5
REMARK  Name = ../refined-set-2016/1yc1/1yc1_pocket.pdb
REMARK  232 active torsions:
REMARK  status: ('A' for Active; 'I' for Inactive)
REMARK    1  A    between atoms: _1  and  _3
REMARK    2  A    between atoms: _3  and  _4
REMARK    3  A    between atoms: _3  and  _6
REMARK    4  A    between atoms: _6  and  _7
REMARK    5  A    between atoms: _13  and  _15
REMARK    6  A    between atoms: _15  and  _16
REMARK    7  A    between atoms: _15  and  _18
REMARK    8  A    between atoms: _18  and  _19
REMARK    9  A    between atoms: _19  and  _20
REMARK   10  A    between atoms: _23  and  _25
REMARK   11  A    between atoms: _25  and  _26
REMARK   12  A    between atoms: _25  and  _28
REMARK   13  A    between atoms: _28  and  _29
REMARK   14  A    between atoms: _32  and  _34
REMARK   15  A    between atoms: _34  and  _35
REMARK   16  A    between atoms: _34  and  _37
REMARK   17  A    between atoms: _37  and  _38
REMARK   18  A    between atoms: _41  and  _43
REMARK   19  A    between atoms: _43  and  _44
REMARK   20  A    between atoms: _43  and  _46
REMARK   21  A    between atoms: _46  and  _47
REMARK   22  A    between atoms: _49  and  _51
REMARK   23  A    between atoms: _51  and  _52
REMARK   24  A    between atoms: _51  and  _54
REMARK   25  A    between atoms: _54  and  _55
REMARK   26  A    between atoms: _60  and  _62
REMARK   27  A    between atoms: _62  and  _63
REMARK   28  A    between atoms: _62  and  _65
REMARK   29  A    between atoms: _65  and  _66
REMARK   30  A    between atoms: _68  and  _70
REMARK   31  A    between atoms: _70  and  _71
REMARK   32  A    between atoms: _70  and  _73
REMARK   33  A    between atoms: _73  and  _74
REMARK   34  A    between atoms: _76  and  _78
REMARK   35  A    between atoms: _78  and  _79
REMARK   36  A    between atoms: _78  and  _81
REMARK   37  A    between atoms: _81  and  _82
REMARK   38  A    between atoms: _85  and  _87
REMARK   39  A    between atoms: _87  and  _88
REMARK   40  A    between atoms: _91  and  _93
REMARK   41  A    between atoms: _93  and  _94
REMARK   42  A    between atoms: _93  and  _96
REMARK   43  A    between atoms: _96  and  _97
REMARK   44  A    between atoms: _100  and  _102
REMARK   45  A    between atoms: _102  and  _103
REMARK   46  A    between atoms: _102  and  _105
REMARK   47  A    between atoms: _105  and  _106
REMARK   48  A    between atoms: _109  and  _111
REMARK   49  A    between atoms: _111  and  _112
REMARK   50  A    between atoms: _111  and  _114
REMARK   51  A    between atoms: _114  and  _115
REMARK   52  A    between atoms: _115  and  _116
REMARK   53  A    between atoms: _116  and  _117
REMARK   54  A    between atoms: _117  and  _118
REMARK   55  A    between atoms: _122  and  _124
REMARK   56  A    between atoms: _124  and  _125
REMARK   57  A    between atoms: _124  and  _127
REMARK   58  A    between atoms: _127  and  _128
REMARK   59  A    between atoms: _131  and  _133
REMARK   60  A    between atoms: _133  and  _134
REMARK   61  A    between atoms: _133  and  _136
REMARK   62  A    between atoms: _136  and  _137
REMARK   63  A    between atoms: _140  and  _142
REMARK   64  A    between atoms: _142  and  _143
REMARK   65  A    between atoms: _142  and  _145
REMARK   66  A    between atoms: _145  and  _146
REMARK   67  A    between atoms: _149  and  _151
REMARK   68  A    between atoms: _151  and  _152
REMARK   69  A    between atoms: _151  and  _154
REMARK   70  A    between atoms: _157  and  _159
REMARK   71  A    between atoms: _159  and  _160
REMARK   72  A    between atoms: _159  and  _162
REMARK   73  A    between atoms: _162  and  _163
REMARK   74  A    between atoms: _166  and  _168
REMARK   75  A    between atoms: _168  and  _169
REMARK   76  A    between atoms: _168  and  _171
REMARK   77  A    between atoms: _171  and  _172
REMARK   78  A    between atoms: _175  and  _177
REMARK   79  A    between atoms: _177  and  _178
REMARK   80  A    between atoms: _180  and  _182
REMARK   81  A    between atoms: _182  and  _183
REMARK   82  A    between atoms: _182  and  _185
REMARK   83  A    between atoms: _185  and  _186
REMARK   84  A    between atoms: _189  and  _191
REMARK   85  A    between atoms: _191  and  _192
REMARK   86  A    between atoms: _194  and  _196
REMARK   87  A    between atoms: _196  and  _197
REMARK   88  A    between atoms: _196  and  _199
REMARK   89  A    between atoms: _199  and  _200
REMARK   90  A    between atoms: _200  and  _201
REMARK   91  A    between atoms: _203  and  _205
REMARK   92  A    between atoms: _205  and  _206
REMARK   93  A    between atoms: _205  and  _208
REMARK   94  A    between atoms: _208  and  _209
REMARK   95  A    between atoms: _212  and  _214
REMARK   96  A    between atoms: _214  and  _215
REMARK   97  A    between atoms: _214  and  _217
REMARK   98  A    between atoms: _217  and  _218
REMARK   99  A    between atoms: _221  and  _223
REMARK  100  A    between atoms: _223  and  _224
REMARK  101  A    between atoms: _223  and  _226
REMARK  102  A    between atoms: _226  and  _227
REMARK  103  A    between atoms: _230  and  _232
REMARK  104  A    between atoms: _232  and  _233
REMARK  105  A    between atoms: _232  and  _235
REMARK  106  A    between atoms: _235  and  _236
REMARK  107  A    between atoms: _241  and  _243
REMARK  108  A    between atoms: _243  and  _244
REMARK  109  A    between atoms: _243  and  _246
REMARK  110  A    between atoms: _246  and  _247
REMARK  111  A    between atoms: _252  and  _254
REMARK  112  A    between atoms: _254  and  _255
REMARK  113  A    between atoms: _254  and  _257
REMARK  114  A    between atoms: _257  and  _258
REMARK  115  A    between atoms: _261  and  _263
REMARK  116  A    between atoms: _263  and  _264
REMARK  117  A    between atoms: _263  and  _266
REMARK  118  A    between atoms: _266  and  _267
REMARK  119  A    between atoms: _270  and  _272
REMARK  120  A    between atoms: _272  and  _273
REMARK  121  A    between atoms: _272  and  _275
REMARK  122  A    between atoms: _275  and  _276
REMARK  123  A    between atoms: _279  and  _281
REMARK  124  A    between atoms: _281  and  _282
REMARK  125  A    between atoms: _285  and  _287
REMARK  126  A    between atoms: _287  and  _288
REMARK  127  A    between atoms: _287  and  _290
REMARK  128  A    between atoms: _290  and  _291
REMARK  129  A    between atoms: _291  and  _292
REMARK  130  A    between atoms: _292  and  _293
REMARK  131  A    between atoms: _293  and  _294
REMARK  132  A    between atoms: _298  and  _300
REMARK  133  A    between atoms: _300  and  _301
REMARK  134  A    between atoms: _300  and  _303
REMARK  135  A    between atoms: _303  and  _304
REMARK  136  A    between atoms: _306  and  _308
REMARK  137  A    between atoms: _308  and  _309
REMARK  138  A    between atoms: _311  and  _313
REMARK  139  A    between atoms: _313  and  _314
REMARK  140  A    between atoms: _313  and  _316
REMARK  141  A    between atoms: _316  and  _317
REMARK  142  A    between atoms: _323  and  _325
REMARK  143  A    between atoms: _325  and  _326
REMARK  144  A    between atoms: _328  and  _330
REMARK  145  A    between atoms: _330  and  _331
REMARK  146  A    between atoms: _330  and  _333
REMARK  147  A    between atoms: _336  and  _338
REMARK  148  A    between atoms: _338  and  _339
REMARK  149  A    between atoms: _341  and  _343
REMARK  150  A    between atoms: _343  and  _344
REMARK  151  A    between atoms: _343  and  _346
REMARK  152  A    between atoms: _346  and  _347
REMARK  153  A    between atoms: _353  and  _355
REMARK  154  A    between atoms: _355  and  _356
REMARK  155  A    between atoms: _355  and  _358
REMARK  156  A    between atoms: _358  and  _359
REMARK  157  A    between atoms: _364  and  _365
REMARK  158  A    between atoms: _367  and  _369
REMARK  159  A    between atoms: _369  and  _370
REMARK  160  A    between atoms: _373  and  _375
REMARK  161  A    between atoms: _375  and  _376
REMARK  162  A    between atoms: _375  and  _378
REMARK  163  A    between atoms: _378  and  _379
REMARK  164  A    between atoms: _384  and  _385
REMARK  165  A    between atoms: _387  and  _389
REMARK  166  A    between atoms: _389  and  _390
REMARK  167  A    between atoms: _389  and  _392
REMARK  168  A    between atoms: _395  and  _397
REMARK  169  A    between atoms: _397  and  _398
REMARK  170  A    between atoms: _397  and  _400
REMARK  171  A    between atoms: _400  and  _401
REMARK  172  A    between atoms: _404  and  _406
REMARK  173  A    between atoms: _406  and  _407
REMARK  174  A    between atoms: _406  and  _409
REMARK  175  A    between atoms: _412  and  _414
REMARK  176  A    between atoms: _414  and  _415
REMARK  177  A    between atoms: _414  and  _417
REMARK  178  A    between atoms: _417  and  _418
REMARK  179  A    between atoms: _421  and  _423
REMARK  180  A    between atoms: _423  and  _424
REMARK  181  A    between atoms: _423  and  _426
REMARK  182  A    between atoms: _426  and  _427
REMARK  183  A    between atoms: _430  and  _432
REMARK  184  A    between atoms: _432  and  _433
REMARK  185  A    between atoms: _432  and  _435
REMARK  186  A    between atoms: _435  and  _436
REMARK  187  A    between atoms: _436  and  _437
REMARK  188  A    between atoms: _437  and  _438
REMARK  189  A    between atoms: _438  and  _439
REMARK  190  A    between atoms: _443  and  _445
REMARK  191  A    between atoms: _445  and  _446
REMARK  192  A    between atoms: _445  and  _448
REMARK  193  A    between atoms: _448  and  _449
REMARK  194  A    between atoms: _454  and  _456
REMARK  195  A    between atoms: _456  and  _457
REMARK  196  A    between atoms: _456  and  _459
REMARK  197  A    between atoms: _459  and  _460
REMARK  198  A    between atoms: _470  and  _472
REMARK  199  A    between atoms: _472  and  _473
REMARK  200  A    between atoms: _472  and  _475
REMARK  201  A    between atoms: _475  and  _476
REMARK  202  A    between atoms: _476  and  _477
REMARK  203  A    between atoms: _479  and  _481
REMARK  204  A    between atoms: _481  and  _482
REMARK  205  A    between atoms: _481  and  _484
REMARK  206  A    between atoms: _484  and  _485
REMARK  207  A    between atoms: _485  and  _486
REMARK  208  A    between atoms: _486  and  _487
REMARK  209  A    between atoms: _496  and  _498
REMARK  210  A    between atoms: _498  and  _499
REMARK  211  A    between atoms: _501  and  _503
REMARK  212  A    between atoms: _503  and  _504
REMARK  213  A    between atoms: _503  and  _506
REMARK  214  A    between atoms: _506  and  _507
REMARK  215  A    between atoms: _510  and  _512
REMARK  216  A    between atoms: _512  and  _513
REMARK  217  A    between atoms: _512  and  _515
REMARK  218  A    between atoms: _515  and  _516
REMARK  219  A    between atoms: _516  and  _517
REMARK  220  A    between atoms: _517  and  _518
REMARK  221  A    between atoms: _518  and  _519
REMARK  222  A    between atoms: _523  and  _525
REMARK  223  A    between atoms: _525  and  _526
REMARK  224  A    between atoms: _525  and  _528
REMARK  225  A    between atoms: _531  and  _533
REMARK  226  A    between atoms: _533  and  _534
REMARK  227  A    between atoms: _533  and  _536
REMARK  228  A    between atoms: _536  and  _537
REMARK  229  A    between atoms: _540  and  _542
REMARK  230  A    between atoms: _542  and  _543
REMARK  231  A    between atoms: _542  and  _545
REMARK  232  A    between atoms: _545  and  _546
REMARK                            x       y       z     vdW  Elec       q    Type
REMARK                         _______ _______ _______ _____ _____    ______ ____
ROOT
ATOM      1  CA  LYS A   4      -4.156  25.600  -2.250  0.00  0.00    +0.149 C 
ENDROOT
BRANCH   1   4
ATOM      2  C   THR A   3      -4.241  27.490  -3.797  0.00  0.00    +0.243 C 
ATOM      3  O   THR A   3      -5.197  28.031  -3.199  0.00  0.00    -0.273 OA
ATOM      4  N   LYS A   4      -3.688  26.341  -3.415  0.00  0.00    -0.297 N 
ATOM      5  H   LYS A   4      -2.894  25.958  -3.967  0.00  0.00    +0.150 HD
BRANCH   2   6
ATOM      6  CA  THR A   3      -3.634  28.127  -5.035  0.00  0.00    +0.176 C 
BRANCH   6   8
ATOM      7  C   GLY A   2      -4.614  28.461  -7.202  0.00  0.00    +0.243 C 
ATOM      8  N   THR A   3      -4.689  28.633  -5.893  0.00  0.00    -0.295 N 
ATOM      9  H   THR A   3      -5.503  29.130  -5.479  0.00  0.00    +0.150 HD
ATOM     10  O   GLY A   2      -3.720  27.807  -7.764  0.00  0.00    -0.273 OA
BRANCH   7  11
ATOM     11  CA  GLY A   2      -5.762  29.058  -7.962  0.00  0.00    +0.176 C 
BRANCH  11  14
ATOM     12  C   ARG A   1      -7.021  28.172  -9.786  0.00  0.00    +0.238 C 
ATOM     13  O   ARG A   1      -8.042  28.125  -9.112  0.00  0.00    -0.274 OA
ATOM     14  N   GLY A   2      -5.840  28.537  -9.318  0.00  0.00    -0.296 N 
ATOM     15  H   GLY A   2      -4.986  28.454  -9.906  0.00  0.00    +0.150 HD
BRANCH  12  16
ATOM     16  CA  ARG A   1      -7.049  27.730 -11.233  0.00  0.00    +0.145 C 
BRANCH  16  17
ATOM     17  N   ARG A   1      -7.933  26.579 -11.308  0.00  0.00    -0.238 NA
ATOM     18  H   ARG A   1      -8.456  26.283 -10.459  0.00  0.00    +0.142 HD
ENDBRANCH  16  17
BRANCH  16  19
ATOM     19  CB  ARG A   1      -7.571  28.945 -12.033  0.00  0.00    +0.030 C 
BRANCH  19  20
ATOM     20  CG  ARG A   1      -6.620  30.118 -12.094  0.00  0.00    +0.045 C 
BRANCH  20  21
ATOM     21  CD  ARG A   1      -7.353  31.411 -12.523  0.00  0.00    +0.174 C 
BRANCH  21  22
ATOM     22  NE  ARG A   1      -8.423  31.703 -11.590  0.00  0.00    -0.265 N 
ATOM     23  HE  ARG A   1      -8.155  32.004 -10.631  0.00  0.00    +0.259 HD
ATOM     24  CZ  ARG A   1      -9.725  31.615 -11.866  0.00  0.00    +0.342 C 
ATOM     25  NH2 ARG A   1     -10.625  31.933 -10.961  0.00  0.00    -0.292 N 
ATOM     26 HH21 ARG A   1     -10.324  32.257 -10.020  0.00  0.00    +0.255 HD
ATOM     27 HH22 ARG A   1     -11.638  31.861 -11.187  0.00  0.00    +0.255 HD
ATOM     28  NH1 ARG A   1     -10.129  31.227 -13.093  0.00  0.00    -0.292 N 
ATOM     29 HH11 ARG A   1     -11.144  31.158 -13.309  0.00  0.00    +0.255 HD
ATOM     30 HH12 ARG A   1      -9.425  30.997 -13.823  0.00  0.00    +0.255 HD
ENDBRANCH  21  22
ENDBRANCH  20  21
ENDBRANCH  19  20
ENDBRANCH  16  19
ENDBRANCH  12  16
ENDBRANCH  11  14
ENDBRANCH   7  11
ENDBRANCH   6   8
BRANCH   6  31
ATOM     31  CB  THR A   3      -2.703  29.295  -4.655  0.00  0.00    +0.137 C 
ATOM     32  CG2 THR A   3      -1.632  28.860  -3.640  0.00  0.00    +0.034 C 
BRANCH  31  33
ATOM     33  OG1 THR A   3      -2.038  29.794  -5.819  0.00  0.00    -0.382 OA
ATOM     34  HG1 THR A   3      -1.501  29.069  -6.227  0.00  0.00    +0.210 HD
ENDBRANCH  31  33
ENDBRANCH   6  31
ENDBRANCH   2   6
ENDBRANCH   1   4
BRANCH   1  35
ATOM     35  C   LYS A   4      -2.972  25.468  -1.286  0.00  0.00    +0.241 C 
ATOM     36  N   VAL A   5      -3.111  25.916  -0.037  0.00  0.00    -0.297 N 
ATOM     37  H   VAL A   5      -3.999  26.361   0.270  0.00  0.00    +0.150 HD
ATOM     38  O   LYS A   4      -1.945  24.976  -1.691  0.00  0.00    -0.273 OA
BRANCH  36  39
ATOM     39  CA  VAL A   5      -1.984  25.769   0.898  0.00  0.00    +0.149 C 
BRANCH  39  40
ATOM     40  C   VAL A   5      -2.414  24.737   1.927  0.00  0.00    +0.241 C 
ATOM     41  O   VAL A   5      -3.440  24.913   2.595  0.00  0.00    -0.273 OA
ATOM     42  N   ILE A   6      -1.658  23.646   2.076  0.00  0.00    -0.297 N 
ATOM     43  H   ILE A   6      -0.809  23.532   1.486  0.00  0.00    +0.150 HD
BRANCH  42  44
ATOM     44  CA  ILE A   6      -1.993  22.621   3.038  0.00  0.00    +0.149 C 
BRANCH  44  45
ATOM     45  C   ILE A   6      -1.029  22.740   4.202  0.00  0.00    +0.241 C 
ATOM     46  N   LEU A   7      -1.553  23.029   5.387  0.00  0.00    -0.298 N 
ATOM     47  H   LEU A   7      -2.583  23.136   5.482  0.00  0.00    +0.150 HD
ATOM     48  O   ILE A   6       0.174  22.570   4.018  0.00  0.00    -0.273 OA
BRANCH  46  49
ATOM     49  CA  LEU A   7      -0.682  23.201   6.579  0.00  0.00    +0.137 C 
BRANCH  49  50
ATOM     50  C   LEU A   7      -0.746  21.895   7.346  0.00  0.00    +0.227 C 
ATOM     51  O   LEU A   7      -1.793  21.501   7.837  0.00  0.00    -0.286 OA
ENDBRANCH  49  50
BRANCH  49  52
ATOM     52  CB  LEU A   7      -1.235  24.322   7.444  0.00  0.00    +0.028 C 
BRANCH  52  53
ATOM     53  CG  LEU A   7      -1.399  25.662   6.743  0.00  0.00    +0.002 C 
ATOM     54  CD2 LEU A   7      -2.119  26.610   7.775  0.00  0.00    +0.000 C 
ATOM     55  CD1 LEU A   7      -0.057  26.156   6.283  0.00  0.00    +0.000 C 
ENDBRANCH  52  53
ENDBRANCH  49  52
ENDBRANCH  46  49
ENDBRANCH  44  45
BRANCH  44  56
ATOM     56  CB  ILE A   6      -1.825  21.228   2.421  0.00  0.00    +0.027 C 
ATOM     57  CG2 ILE A   6      -2.298  20.180   3.431  0.00  0.00    +0.002 C 
BRANCH  56  58
ATOM     58  CG1 ILE A   6      -2.685  21.157   1.146  0.00  0.00    +0.002 C 
ATOM     59  CD1 ILE A   6      -2.385  19.960   0.328  0.00  0.00    +0.000 C 
ENDBRANCH  56  58
ENDBRANCH  44  56
ENDBRANCH  42  44
ENDBRANCH  39  40
BRANCH  39  60
ATOM     60  CB  VAL A   5      -1.708  27.096   1.572  0.00  0.00    +0.027 C 
ATOM     61  CG2 VAL A   5      -0.602  26.935   2.598  0.00  0.00    +0.002 C 
ATOM     62  CG1 VAL A   5      -1.271  28.155   0.515  0.00  0.00    +0.002 C 
ENDBRANCH  39  60
ENDBRANCH  36  39
ENDBRANCH   1  35
BRANCH   1  63
ATOM     63  CB  LYS A   4      -4.601  24.222  -2.752  0.00  0.00    +0.029 C 
BRANCH  63  64
ATOM     64  CG  LYS A   4      -4.996  23.314  -1.693  0.00  0.00    +0.000 C 
BRANCH  64  65
ATOM     65  CD  LYS A   4      -5.811  22.158  -2.279  0.00  0.00    -0.024 C 
BRANCH  65  66
ATOM     66  CE  LYS A   4      -4.912  21.199  -3.047  0.00  0.00    -0.086 C 
BRANCH  66  67
ATOM     67  NZ  LYS A   4      -5.848  20.068  -3.565  0.00  0.00    +0.380 N 
ATOM     68  HZ1 LYS A   4      -6.301  19.597  -2.756  0.00  0.00    -0.089 HD
ATOM     69  HZ2 LYS A   4      -5.288  19.375  -4.102  0.00  0.00    -0.089 HD
ATOM     70  HZ3 LYS A   4      -6.578  20.479  -4.182  0.00  0.00    -0.089 HD
ENDBRANCH  66  67
ENDBRANCH  65  66
ENDBRANCH  64  65
ENDBRANCH  63  64
ENDBRANCH   1  63
TORSDOF 30
REMARK  Name = ../refined-set-2016/1yc1/1yc1_pocket.pdb
REMARK  232 active torsions:
REMARK  status: ('A' for Active; 'I' for Inactive)
REMARK    1  A    between atoms: _1  and  _3
REMARK    2  A    between atoms: _3  and  _4
REMARK    3  A    between atoms: _3  and  _6
REMARK    4  A    between atoms: _6  and  _7
REMARK    5  A    between atoms: _13  and  _15
REMARK    6  A    between atoms: _15  and  _16
REMARK    7  A    between atoms: _15  and  _18
REMARK    8  A    between atoms: _18  and  _19
REMARK    9  A    between atoms: _19  and  _20
REMARK   10  A    between atoms: _23  and  _25
REMARK   11  A    between atoms: _25  and  _26
REMARK   12  A    between atoms: _25  and  _28
REMARK   13  A    between atoms: _28  and  _29
REMARK   14  A    between atoms: _32  and  _34
REMARK   15  A    between atoms: _34  and  _35
REMARK   16  A    between atoms: _34  and  _37
REMARK   17  A    between atoms: _37  and  _38
REMARK   18  A    between atoms: _41  and  _43
REMARK   19  A    between atoms: _43  and  _44
REMARK   20  A    between atoms: _43  and  _46
REMARK   21  A    between atoms: _46  and  _47
REMARK   22  A    between atoms: _49  and  _51
REMARK   23  A    between atoms: _51  and  _52
REMARK   24  A    between atoms: _51  and  _54
REMARK   25  A    between atoms: _54  and  _55
REMARK   26  A    between atoms: _60  and  _62
REMARK   27  A    between atoms: _62  and  _63
REMARK   28  A    between atoms: _62  and  _65
REMARK   29  A    between atoms: _65  and  _66
REMARK   30  A    between atoms: _68  and  _70
REMARK   31  A    between atoms: _70  and  _71
REMARK   32  A    between atoms: _70  and  _73
REMARK   33  A    between atoms: _73  and  _74
REMARK   34  A    between atoms: _76  and  _78
REMARK   35  A    between atoms: _78  and  _79
REMARK   36  A    between atoms: _78  and  _81
REMARK   37  A    between atoms: _81  and  _82
REMARK   38  A    between atoms: _85  and  _87
REMARK   39  A    between atoms: _87  and  _88
REMARK   40  A    between atoms: _91  and  _93
REMARK   41  A    between atoms: _93  and  _94
REMARK   42  A    between atoms: _93  and  _96
REMARK   43  A    between atoms: _96  and  _97
REMARK   44  A    between atoms: _100  and  _102
REMARK   45  A    between atoms: _102  and  _103
REMARK   46  A    between atoms: _102  and  _105
REMARK   47  A    between atoms: _105  and  _106
REMARK   48  A    between atoms: _109  and  _111
REMARK   49  A    between atoms: _111  and  _112
REMARK   50  A    between atoms: _111  and  _114
REMARK   51  A    between atoms: _114  and  _115
REMARK   52  A    between atoms: _115  and  _116
REMARK   53  A    between atoms: _116  and  _117
REMARK   54  A    between atoms: _117  and  _118
REMARK   55  A    between atoms: _122  and  _124
REMARK   56  A    between atoms: _124  and  _125
REMARK   57  A    between atoms: _124  and  _127
REMARK   58  A    between atoms: _127  and  _128
REMARK   59  A    between atoms: _131  and  _133
REMARK   60  A    between atoms: _133  and  _134
REMARK   61  A    between atoms: _133  and  _136
REMARK   62  A    between atoms: _136  and  _137
REMARK   63  A    between atoms: _140  and  _142
REMARK   64  A    between atoms: _142  and  _143
REMARK   65  A    between atoms: _142  and  _145
REMARK   66  A    between atoms: _145  and  _146
REMARK   67  A    between atoms: _149  and  _151
REMARK   68  A    between atoms: _151  and  _152
REMARK   69  A    between atoms: _151  and  _154
REMARK   70  A    between atoms: _157  and  _159
REMARK   71  A    between atoms: _159  and  _160
REMARK   72  A    between atoms: _159  and  _162
REMARK   73  A    between atoms: _162  and  _163
REMARK   74  A    between atoms: _166  and  _168
REMARK   75  A    between atoms: _168  and  _169
REMARK   76  A    between atoms: _168  and  _171
REMARK   77  A    between atoms: _171  and  _172
REMARK   78  A    between atoms: _175  and  _177
REMARK   79  A    between atoms: _177  and  _178
REMARK   80  A    between atoms: _180  and  _182
REMARK   81  A    between atoms: _182  and  _183
REMARK   82  A    between atoms: _182  and  _185
REMARK   83  A    between atoms: _185  and  _186
REMARK   84  A    between atoms: _189  and  _191
REMARK   85  A    between atoms: _191  and  _192
REMARK   86  A    between atoms: _194  and  _196
REMARK   87  A    between atoms: _196  and  _197
REMARK   88  A    between atoms: _196  and  _199
REMARK   89  A    between atoms: _199  and  _200
REMARK   90  A    between atoms: _200  and  _201
REMARK   91  A    between atoms: _203  and  _205
REMARK   92  A    between atoms: _205  and  _206
REMARK   93  A    between atoms: _205  and  _208
REMARK   94  A    between atoms: _208  and  _209
REMARK   95  A    between atoms: _212  and  _214
REMARK   96  A    between atoms: _214  and  _215
REMARK   97  A    between atoms: _214  and  _217
REMARK   98  A    between atoms: _217  and  _218
REMARK   99  A    between atoms: _221  and  _223
REMARK  100  A    between atoms: _223  and  _224
REMARK  101  A    between atoms: _223  and  _226
REMARK  102  A    between atoms: _226  and  _227
REMARK  103  A    between atoms: _230  and  _232
REMARK  104  A    between atoms: _232  and  _233
REMARK  105  A    between atoms: _232  and  _235
REMARK  106  A    between atoms: _235  and  _236
REMARK  107  A    between atoms: _241  and  _243
REMARK  108  A    between atoms: _243  and  _244
REMARK  109  A    between atoms: _243  and  _246
REMARK  110  A    between atoms: _246  and  _247
REMARK  111  A    between atoms: _252  and  _254
REMARK  112  A    between atoms: _254  and  _255
REMARK  113  A    between atoms: _254  and  _257
REMARK  114  A    between atoms: _257  and  _258
REMARK  115  A    between atoms: _261  and  _263
REMARK  116  A    between atoms: _263  and  _264
REMARK  117  A    between atoms: _263  and  _266
REMARK  118  A    between atoms: _266  and  _267
REMARK  119  A    between atoms: _270  and  _272
REMARK  120  A    between atoms: _272  and  _273
REMARK  121  A    between atoms: _272  and  _275
REMARK  122  A    between atoms: _275  and  _276
REMARK  123  A    between atoms: _279  and  _281
REMARK  124  A    between atoms: _281  and  _282
REMARK  125  A    between atoms: _285  and  _287
REMARK  126  A    between atoms: _287  and  _288
REMARK  127  A    between atoms: _287  and  _290
REMARK  128  A    between atoms: _290  and  _291
REMARK  129  A    between atoms: _291  and  _292
REMARK  130  A    between atoms: _292  and  _293
REMARK  131  A    between atoms: _293  and  _294
REMARK  132  A    between atoms: _298  and  _300
REMARK  133  A    between atoms: _300  and  _301
REMARK  134  A    between atoms: _300  and  _303
REMARK  135  A    between atoms: _303  and  _304
REMARK  136  A    between atoms: _306  and  _308
REMARK  137  A    between atoms: _308  and  _309
REMARK  138  A    between atoms: _311  and  _313
REMARK  139  A    between atoms: _313  and  _314
REMARK  140  A    between atoms: _313  and  _316
REMARK  141  A    between atoms: _316  and  _317
REMARK  142  A    between atoms: _323  and  _325
REMARK  143  A    between atoms: _325  and  _326
REMARK  144  A    between atoms: _328  and  _330
REMARK  145  A    between atoms: _330  and  _331
REMARK  146  A    between atoms: _330  and  _333
REMARK  147  A    between atoms: _336  and  _338
REMARK  148  A    between atoms: _338  and  _339
REMARK  149  A    between atoms: _341  and  _343
REMARK  150  A    between atoms: _343  and  _344
REMARK  151  A    between atoms: _343  and  _346
REMARK  152  A    between atoms: _346  and  _347
REMARK  153  A    between atoms: _353  and  _355
REMARK  154  A    between atoms: _355  and  _356
REMARK  155  A    between atoms: _355  and  _358
REMARK  156  A    between atoms: _358  and  _359
REMARK  157  A    between atoms: _364  and  _365
REMARK  158  A    between atoms: _367  and  _369
REMARK  159  A    between atoms: _369  and  _370
REMARK  160  A    between atoms: _373  and  _375
REMARK  161  A    between atoms: _375  and  _376
REMARK  162  A    between atoms: _375  and  _378
REMARK  163  A    between atoms: _378  and  _379
REMARK  164  A    between atoms: _384  and  _385
REMARK  165  A    between atoms: _387  and  _389
REMARK  166  A    between atoms: _389  and  _390
REMARK  167  A    between atoms: _389  and  _392
REMARK  168  A    between atoms: _395  and  _397
REMARK  169  A    between atoms: _397  and  _398
REMARK  170  A    between atoms: _397  and  _400
REMARK  171  A    between atoms: _400  and  _401
REMARK  172  A    between atoms: _404  and  _406
REMARK  173  A    between atoms: _406  and  _407
REMARK  174  A    between atoms: _406  and  _409
REMARK  175  A    between atoms: _412  and  _414
REMARK  176  A    between atoms: _414  and  _415
REMARK  177  A    between atoms: _414  and  _417
REMARK  178  A    between atoms: _417  and  _418
REMARK  179  A    between atoms: _421  and  _423
REMARK  180  A    between atoms: _423  and  _424
REMARK  181  A    between atoms: _423  and  _426
REMARK  182  A    between atoms: _426  and  _427
REMARK  183  A    between atoms: _430  and  _432
REMARK  184  A    between atoms: _432  and  _433
REMARK  185  A    between atoms: _432  and  _435
REMARK  186  A    between atoms: _435  and  _436
REMARK  187  A    between atoms: _436  and  _437
REMARK  188  A    between atoms: _437  and  _438
REMARK  189  A    between atoms: _438  and  _439
REMARK  190  A    between atoms: _443  and  _445
REMARK  191  A    between atoms: _445  and  _446
REMARK  192  A    between atoms: _445  and  _448
REMARK  193  A    between atoms: _448  and  _449
REMARK  194  A    between atoms: _454  and  _456
REMARK  195  A    between atoms: _456  and  _457
REMARK  196  A    between atoms: _456  and  _459
REMARK  197  A    between atoms: _459  and  _460
REMARK  198  A    between atoms: _470  and  _472
REMARK  199  A    between atoms: _472  and  _473
REMARK  200  A    between atoms: _472  and  _475
REMARK  201  A    between atoms: _475  and  _476
REMARK  202  A    between atoms: _476  and  _477
REMARK  203  A    between atoms: _479  and  _481
REMARK  204  A    between atoms: _481  and  _482
REMARK  205  A    between atoms: _481  and  _484
REMARK  206  A    between atoms: _484  and  _485
REMARK  207  A    between atoms: _485  and  _486
REMARK  208  A    between atoms: _486  and  _487
REMARK  209  A    between atoms: _496  and  _498
REMARK  210  A    between atoms: _498  and  _499
REMARK  211  A    between atoms: _501  and  _503
REMARK  212  A    between atoms: _503  and  _504
REMARK  213  A    between atoms: _503  and  _506
REMARK  214  A    between atoms: _506  and  _507
REMARK  215  A    between atoms: _510  and  _512
REMARK  216  A    between atoms: _512  and  _513
REMARK  217  A    between atoms: _512  and  _515
REMARK  218  A    between atoms: _515  and  _516
REMARK  219  A    between atoms: _516  and  _517
REMARK  220  A    between atoms: _517  and  _518
REMARK  221  A    between atoms: _518  and  _519
REMARK  222  A    between atoms: _523  and  _525
REMARK  223  A    between atoms: _525  and  _526
REMARK  224  A    between atoms: _525  and  _528
REMARK  225  A    between atoms: _531  and  _533
REMARK  226  A    between atoms: _533  and  _534
REMARK  227  A    between atoms: _533  and  _536
REMARK  228  A    between atoms: _536  and  _537
REMARK  229  A    between atoms: _540  and  _542
REMARK  230  A    between atoms: _542  and  _543
REMARK  231  A    between atoms: _542  and  _545
REMARK  232  A    between atoms: _545  and  _546
REMARK                            x       y       z     vdW  Elec       q    Type
REMARK                         _______ _______ _______ _____ _____    ______ ____
ROOT
ATOM      1  O   HOH     1      -3.448  31.145   1.136  0.00  0.00    +0.000 OA
ENDROOT
TORSDOF 0
REMARK  Name = ../refined-set-2016/1yc1/1yc1_pocket.pdb
REMARK  232 active torsions:
REMARK  status: ('A' for Active; 'I' for Inactive)
REMARK    1  A    between atoms: _1  and  _3
REMARK    2  A    between atoms: _3  and  _4
REMARK    3  A    between atoms: _3  and  _6
REMARK    4  A    between atoms: _6  and  _7
REMARK    5  A    between atoms: _13  and  _15
REMARK    6  A    between atoms: _15  and  _16
REMARK    7  A    between atoms: _15  and  _18
REMARK    8  A    between atoms: _18  and  _19
REMARK    9  A    between atoms: _19  and  _20
REMARK   10  A    between atoms: _23  and  _25
REMARK   11  A    between atoms: _25  and  _26
REMARK   12  A    between atoms: _25  and  _28
REMARK   13  A    between atoms: _28  and  _29
REMARK   14  A    between atoms: _32  and  _34
REMARK   15  A    between atoms: _34  and  _35
REMARK   16  A    between atoms: _34  and  _37
REMARK   17  A    between atoms: _37  and  _38
REMARK   18  A    between atoms: _41  and  _43
REMARK   19  A    between atoms: _43  and  _44
REMARK   20  A    between atoms: _43  and  _46
REMARK   21  A    between atoms: _46  and  _47
REMARK   22  A    between atoms: _49  and  _51
REMARK   23  A    between atoms: _51  and  _52
REMARK   24  A    between atoms: _51  and  _54
REMARK   25  A    between atoms: _54  and  _55
REMARK   26  A    between atoms: _60  and  _62
REMARK   27  A    between atoms: _62  and  _63
REMARK   28  A    between atoms: _62  and  _65
REMARK   29  A    between atoms: _65  and  _66
REMARK   30  A    between atoms: _68  and  _70
REMARK   31  A    between atoms: _70  and  _71
REMARK   32  A    between atoms: _70  and  _73
REMARK   33  A    between atoms: _73  and  _74
REMARK   34  A    between atoms: _76  and  _78
REMARK   35  A    between atoms: _78  and  _79
REMARK   36  A    between atoms: _78  and  _81
REMARK   37  A    between atoms: _81  and  _82
REMARK   38  A    between atoms: _85  and  _87
REMARK   39  A    between atoms: _87  and  _88
REMARK   40  A    between atoms: _91  and  _93
REMARK   41  A    between atoms: _93  and  _94
REMARK   42  A    between atoms: _93  and  _96
REMARK   43  A    between atoms: _96  and  _97
REMARK   44  A    between atoms: _100  and  _102
REMARK   45  A    between atoms: _102  and  _103
REMARK   46  A    between atoms: _102  and  _105
REMARK   47  A    between atoms: _105  and  _106
REMARK   48  A    between atoms: _109  and  _111
REMARK   49  A    between atoms: _111  and  _112
REMARK   50  A    between atoms: _111  and  _114
REMARK   51  A    between atoms: _114  and  _115
REMARK   52  A    between atoms: _115  and  _116
REMARK   53  A    between atoms: _116  and  _117
REMARK   54  A    between atoms: _117  and  _118
REMARK   55  A    between atoms: _122  and  _124
REMARK   56  A    between atoms: _124  and  _125
REMARK   57  A    between atoms: _124  and  _127
REMARK   58  A    between atoms: _127  and  _128
REMARK   59  A    between atoms: _131  and  _133
REMARK   60  A    between atoms: _133  and  _134
REMARK   61  A    between atoms: _133  and  _136
REMARK   62  A    between atoms: _136  and  _137
REMARK   63  A    between atoms: _140  and  _142
REMARK   64  A    between atoms: _142  and  _143
REMARK   65  A    between atoms: _142  and  _145
REMARK   66  A    between atoms: _145  and  _146
REMARK   67  A    between atoms: _149  and  _151
REMARK   68  A    between atoms: _151  and  _152
REMARK   69  A    between atoms: _151  and  _154
REMARK   70  A    between atoms: _157  and  _159
REMARK   71  A    between atoms: _159  and  _160
REMARK   72  A    between atoms: _159  and  _162
REMARK   73  A    between atoms: _162  and  _163
REMARK   74  A    between atoms: _166  and  _168
REMARK   75  A    between atoms: _168  and  _169
REMARK   76  A    between atoms: _168  and  _171
REMARK   77  A    between atoms: _171  and  _172
REMARK   78  A    between atoms: _175  and  _177
REMARK   79  A    between atoms: _177  and  _178
REMARK   80  A    between atoms: _180  and  _182
REMARK   81  A    between atoms: _182  and  _183
REMARK   82  A    between atoms: _182  and  _185
REMARK   83  A    between atoms: _185  and  _186
REMARK   84  A    between atoms: _189  and  _191
REMARK   85  A    between atoms: _191  and  _192
REMARK   86  A    between atoms: _194  and  _196
REMARK   87  A    between atoms: _196  and  _197
REMARK   88  A    between atoms: _196  and  _199
REMARK   89  A    between atoms: _199  and  _200
REMARK   90  A    between atoms: _200  and  _201
REMARK   91  A    between atoms: _203  and  _205
REMARK   92  A    between atoms: _205  and  _206
REMARK   93  A    between atoms: _205  and  _208
REMARK   94  A    between atoms: _208  and  _209
REMARK   95  A    between atoms: _212  and  _214
REMARK   96  A    between atoms: _214  and  _215
REMARK   97  A    between atoms: _214  and  _217
REMARK   98  A    between atoms: _217  and  _218
REMARK   99  A    between atoms: _221  and  _223
REMARK  100  A    between atoms: _223  and  _224
REMARK  101  A    between atoms: _223  and  _226
REMARK  102  A    between atoms: _226  and  _227
REMARK  103  A    between atoms: _230  and  _232
REMARK  104  A    between atoms: _232  and  _233
REMARK  105  A    between atoms: _232  and  _235
REMARK  106  A    between atoms: _235  and  _236
REMARK  107  A    between atoms: _241  and  _243
REMARK  108  A    between atoms: _243  and  _244
REMARK  109  A    between atoms: _243  and  _246
REMARK  110  A    between atoms: _246  and  _247
REMARK  111  A    between atoms: _252  and  _254
REMARK  112  A    between atoms: _254  and  _255
REMARK  113  A    between atoms: _254  and  _257
REMARK  114  A    between atoms: _257  and  _258
REMARK  115  A    between atoms: _261  and  _263
REMARK  116  A    between atoms: _263  and  _264
REMARK  117  A    between atoms: _263  and  _266
REMARK  118  A    between atoms: _266  and  _267
REMARK  119  A    between atoms: _270  and  _272
REMARK  120  A    between atoms: _272  and  _273
REMARK  121  A    between atoms: _272  and  _275
REMARK  122  A    between atoms: _275  and  _276
REMARK  123  A    between atoms: _279  and  _281
REMARK  124  A    between atoms: _281  and  _282
REMARK  125  A    between atoms: _285  and  _287
REMARK  126  A    between atoms: _287  and  _288
REMARK  127  A    between atoms: _287  and  _290
REMARK  128  A    between atoms: _290  and  _291
REMARK  129  A    between atoms: _291  and  _292
REMARK  130  A    between atoms: _292  and  _293
REMARK  131  A    between atoms: _293  and  _294
REMARK  132  A    between atoms: _298  and  _300
REMARK  133  A    between atoms: _300  and  _301
REMARK  134  A    between atoms: _300  and  _303
REMARK  135  A    between atoms: _303  and  _304
REMARK  136  A    between atoms: _306  and  _308
REMARK  137  A    between atoms: _308  and  _309
REMARK  138  A    between atoms: _311  and  _313
REMARK  139  A    between atoms: _313  and  _314
REMARK  140  A    between atoms: _313  and  _316
REMARK  141  A    between atoms: _316  and  _317
REMARK  142  A    between atoms: _323  and  _325
REMARK  143  A    between atoms: _325  and  _326
REMARK  144  A    between atoms: _328  and  _330
REMARK  145  A    between atoms: _330  and  _331
REMARK  146  A    between atoms: _330  and  _333
REMARK  147  A    between atoms: _336  and  _338
REMARK  148  A    between atoms: _338  and  _339
REMARK  149  A    between atoms: _341  and  _343
REMARK  150  A    between atoms: _343  and  _344
REMARK  151  A    between atoms: _343  and  _346
REMARK  152  A    between atoms: _346  and  _347
REMARK  153  A    between atoms: _353  and  _355
REMARK  154  A    between atoms: _355  and  _356
REMARK  155  A    between atoms: _355  and  _358
REMARK  156  A    between atoms: _358  and  _359
REMARK  157  A    between atoms: _364  and  _365
REMARK  158  A    between atoms: _367  and  _369
REMARK  159  A    between atoms: _369  and  _370
REMARK  160  A    between atoms: _373  and  _375
REMARK  161  A    between atoms: _375  and  _376
REMARK  162  A    between atoms: _375  and  _378
REMARK  163  A    between atoms: _378  and  _379
REMARK  164  A    between atoms: _384  and  _385
REMARK  165  A    between atoms: _387  and  _389
REMARK  166  A    between atoms: _389  and  _390
REMARK  167  A    between atoms: _389  and  _392
REMARK  168  A    between atoms: _395  and  _397
REMARK  169  A    between atoms: _397  and  _398
REMARK  170  A    between atoms: _397  and  _400
REMARK  171  A    between atoms: _400  and  _401
REMARK  172  A    between atoms: _404  and  _406
REMARK  173  A    between atoms: _406  and  _407
REMARK  174  A    between atoms: _406  and  _409
REMARK  175  A    between atoms: _412  and  _414
REMARK  176  A    between atoms: _414  and  _415
REMARK  177  A    between atoms: _414  and  _417
REMARK  178  A    between atoms: _417  and  _418
REMARK  179  A    between atoms: _421  and  _423
REMARK  180  A    between atoms: _423  and  _424
REMARK  181  A    between atoms: _423  and  _426
REMARK  182  A    between atoms: _426  and  _427
REMARK  183  A    between atoms: _430  and  _432
REMARK  184  A    between atoms: _432  and  _433
REMARK  185  A    between atoms: _432  and  _435
REMARK  186  A    between atoms: _435  and  _436
REMARK  187  A    between atoms: _436  and  _437
REMARK  188  A    between atoms: _437  and  _438
REMARK  189  A    between atoms: _438  and  _439
REMARK  190  A    between atoms: _443  and  _445
REMARK  191  A    between atoms: _445  and  _446
REMARK  192  A    between atoms: _445  and  _448
REMARK  193  A    between atoms: _448  and  _449
REMARK  194  A    between atoms: _454  and  _456
REMARK  195  A    between atoms: _456  and  _457
REMARK  196  A    between atoms: _456  and  _459
REMARK  197  A    between atoms: _459  and  _460
REMARK  198  A    between atoms: _470  and  _472
REMARK  199  A    between atoms: _472  and  _473
REMARK  200  A    between atoms: _472  and  _475
REMARK  201  A    between atoms: _475  and  _476
REMARK  202  A    between atoms: _476  and  _477
REMARK  203  A    between atoms: _479  and  _481
REMARK  204  A    between atoms: _481  and  _482
REMARK  205  A    between atoms: _481  and  _484
REMARK  206  A    between atoms: _484  and  _485
REMARK  207  A    between atoms: _485  and  _486
REMARK  208  A    between atoms: _486  and  _487
REMARK  209  A    between atoms: _496  and  _498
REMARK  210  A    between atoms: _498  and  _499
REMARK  211  A    between atoms: _501  and  _503
REMARK  212  A    between atoms: _503  and  _504
REMARK  213  A    between atoms: _503  and  _506
REMARK  214  A    between atoms: _506  and  _507
REMARK  215  A    between atoms: _510  and  _512
REMARK  216  A    between atoms: _512  and  _513
REMARK  217  A    between atoms: _512  and  _515
REMARK  218  A    between atoms: _515  and  _516
REMARK  219  A    between atoms: _516  and  _517
REMARK  220  A    between atoms: _517  and  _518
REMARK  221  A    between atoms: _518  and  _519
REMARK  222  A    between atoms: _523  and  _525
REMARK  223  A    between atoms: _525  and  _526
REMARK  224  A    between atoms: _525  and  _528
REMARK  225  A    between atoms: _531  and  _533
REMARK  226  A    between atoms: _533  and  _534
REMARK  227  A    between atoms: _533  and  _536
REMARK  228  A    between atoms: _536  and  _537
REMARK  229  A    between atoms: _540  and  _542
REMARK  230  A    between atoms: _542  and  _543
REMARK  231  A    between atoms: _542  and  _545
REMARK  232  A    between atoms: _545  and  _546
REMARK                            x       y       z     vdW  Elec       q    Type
REMARK                         _______ _______ _______ _____ _____    ______ ____
ROOT
ATOM      1  O   HOH     1       3.785  36.006   1.606  0.00  0.00    +0.000 OA
ENDROOT
TORSDOF 0
REMARK  Name = ../refined-set-2016/1yc1/1yc1_pocket.pdb
REMARK  232 active torsions:
REMARK  status: ('A' for Active; 'I' for Inactive)
REMARK    1  A    between atoms: _1  and  _3
REMARK    2  A    between atoms: _3  and  _4
REMARK    3  A    between atoms: _3  and  _6
REMARK    4  A    between atoms: _6  and  _7
REMARK    5  A    between atoms: _13  and  _15
REMARK    6  A    between atoms: _15  and  _16
REMARK    7  A    between atoms: _15  and  _18
REMARK    8  A    between atoms: _18  and  _19
REMARK    9  A    between atoms: _19  and  _20
REMARK   10  A    between atoms: _23  and  _25
REMARK   11  A    between atoms: _25  and  _26
REMARK   12  A    between atoms: _25  and  _28
REMARK   13  A    between atoms: _28  and  _29
REMARK   14  A    between atoms: _32  and  _34
REMARK   15  A    between atoms: _34  and  _35
REMARK   16  A    between atoms: _34  and  _37
REMARK   17  A    between atoms: _37  and  _38
REMARK   18  A    between atoms: _41  and  _43
REMARK   19  A    between atoms: _43  and  _44
REMARK   20  A    between atoms: _43  and  _46
REMARK   21  A    between atoms: _46  and  _47
REMARK   22  A    between atoms: _49  and  _51
REMARK   23  A    between atoms: _51  and  _52
REMARK   24  A    between atoms: _51  and  _54
REMARK   25  A    between atoms: _54  and  _55
REMARK   26  A    between atoms: _60  and  _62
REMARK   27  A    between atoms: _62  and  _63
REMARK   28  A    between atoms: _62  and  _65
REMARK   29  A    between atoms: _65  and  _66
REMARK   30  A    between atoms: _68  and  _70
REMARK   31  A    between atoms: _70  and  _71
REMARK   32  A    between atoms: _70  and  _73
REMARK   33  A    between atoms: _73  and  _74
REMARK   34  A    between atoms: _76  and  _78
REMARK   35  A    between atoms: _78  and  _79
REMARK   36  A    between atoms: _78  and  _81
REMARK   37  A    between atoms: _81  and  _82
REMARK   38  A    between atoms: _85  and  _87
REMARK   39  A    between atoms: _87  and  _88
REMARK   40  A    between atoms: _91  and  _93
REMARK   41  A    between atoms: _93  and  _94
REMARK   42  A    between atoms: _93  and  _96
REMARK   43  A    between atoms: _96  and  _97
REMARK   44  A    between atoms: _100  and  _102
REMARK   45  A    between atoms: _102  and  _103
REMARK   46  A    between atoms: _102  and  _105
REMARK   47  A    between atoms: _105  and  _106
REMARK   48  A    between atoms: _109  and  _111
REMARK   49  A    between atoms: _111  and  _112
REMARK   50  A    between atoms: _111  and  _114
REMARK   51  A    between atoms: _114  and  _115
REMARK   52  A    between atoms: _115  and  _116
REMARK   53  A    between atoms: _116  and  _117
REMARK   54  A    between atoms: _117  and  _118
REMARK   55  A    between atoms: _122  and  _124
REMARK   56  A    between atoms: _124  and  _125
REMARK   57  A    between atoms: _124  and  _127
REMARK   58  A    between atoms: _127  and  _128
REMARK   59  A    between atoms: _131  and  _133
REMARK   60  A    between atoms: _133  and  _134
REMARK   61  A    between atoms: _133  and  _136
REMARK   62  A    between atoms: _136  and  _137
REMARK   63  A    between atoms: _140  and  _142
REMARK   64  A    between atoms: _142  and  _143
REMARK   65  A    between atoms: _142  and  _145
REMARK   66  A    between atoms: _145  and  _146
REMARK   67  A    between atoms: _149  and  _151
REMARK   68  A    between atoms: _151  and  _152
REMARK   69  A    between atoms: _151  and  _154
REMARK   70  A    between atoms: _157  and  _159
REMARK   71  A    between atoms: _159  and  _160
REMARK   72  A    between atoms: _159  and  _162
REMARK   73  A    between atoms: _162  and  _163
REMARK   74  A    between atoms: _166  and  _168
REMARK   75  A    between atoms: _168  and  _169
REMARK   76  A    between atoms: _168  and  _171
REMARK   77  A    between atoms: _171  and  _172
REMARK   78  A    between atoms: _175  and  _177
REMARK   79  A    between atoms: _177  and  _178
REMARK   80  A    between atoms: _180  and  _182
REMARK   81  A    between atoms: _182  and  _183
REMARK   82  A    between atoms: _182  and  _185
REMARK   83  A    between atoms: _185  and  _186
REMARK   84  A    between atoms: _189  and  _191
REMARK   85  A    between atoms: _191  and  _192
REMARK   86  A    between atoms: _194  and  _196
REMARK   87  A    between atoms: _196  and  _197
REMARK   88  A    between atoms: _196  and  _199
REMARK   89  A    between atoms: _199  and  _200
REMARK   90  A    between atoms: _200  and  _201
REMARK   91  A    between atoms: _203  and  _205
REMARK   92  A    between atoms: _205  and  _206
REMARK   93  A    between atoms: _205  and  _208
REMARK   94  A    between atoms: _208  and  _209
REMARK   95  A    between atoms: _212  and  _214
REMARK   96  A    between atoms: _214  and  _215
REMARK   97  A    between atoms: _214  and  _217
REMARK   98  A    between atoms: _217  and  _218
REMARK   99  A    between atoms: _221  and  _223
REMARK  100  A    between atoms: _223  and  _224
REMARK  101  A    between atoms: _223  and  _226
REMARK  102  A    between atoms: _226  and  _227
REMARK  103  A    between atoms: _230  and  _232
REMARK  104  A    between atoms: _232  and  _233
REMARK  105  A    between atoms: _232  and  _235
REMARK  106  A    between atoms: _235  and  _236
REMARK  107  A    between atoms: _241  and  _243
REMARK  108  A    between atoms: _243  and  _244
REMARK  109  A    between atoms: _243  and  _246
REMARK  110  A    between atoms: _246  and  _247
REMARK  111  A    between atoms: _252  and  _254
REMARK  112  A    between atoms: _254  and  _255
REMARK  113  A    between atoms: _254  and  _257
REMARK  114  A    between atoms: _257  and  _258
REMARK  115  A    between atoms: _261  and  _263
REMARK  116  A    between atoms: _263  and  _264
REMARK  117  A    between atoms: _263  and  _266
REMARK  118  A    between atoms: _266  and  _267
REMARK  119  A    between atoms: _270  and  _272
REMARK  120  A    between atoms: _272  and  _273
REMARK  121  A    between atoms: _272  and  _275
REMARK  122  A    between atoms: _275  and  _276
REMARK  123  A    between atoms: _279  and  _281
REMARK  124  A    between atoms: _281  and  _282
REMARK  125  A    between atoms: _285  and  _287
REMARK  126  A    between atoms: _287  and  _288
REMARK  127  A    between atoms: _287  and  _290
REMARK  128  A    between atoms: _290  and  _291
REMARK  129  A    between atoms: _291  and  _292
REMARK  130  A    between atoms: _292  and  _293
REMARK  131  A    between atoms: _293  and  _294
REMARK  132  A    between atoms: _298  and  _300
REMARK  133  A    between atoms: _300  and  _301
REMARK  134  A    between atoms: _300  and  _303
REMARK  135  A    between atoms: _303  and  _304
REMARK  136  A    between atoms: _306  and  _308
REMARK  137  A    between atoms: _308  and  _309
REMARK  138  A    between atoms: _311  and  _313
REMARK  139  A    between atoms: _313  and  _314
REMARK  140  A    between atoms: _313  and  _316
REMARK  141  A    between atoms: _316  and  _317
REMARK  142  A    between atoms: _323  and  _325
REMARK  143  A    between atoms: _325  and  _326
REMARK  144  A    between atoms: _328  and  _330
REMARK  145  A    between atoms: _330  and  _331
REMARK  146  A    between atoms: _330  and  _333
REMARK  147  A    between atoms: _336  and  _338
REMARK  148  A    between atoms: _338  and  _339
REMARK  149  A    between atoms: _341  and  _343
REMARK  150  A    between atoms: _343  and  _344
REMARK  151  A    between atoms: _343  and  _346
REMARK  152  A    between atoms: _346  and  _347
REMARK  153  A    between atoms: _353  and  _355
REMARK  154  A    between atoms: _355  and  _356
REMARK  155  A    between atoms: _355  and  _358
REMARK  156  A    between atoms: _358  and  _359
REMARK  157  A    between atoms: _364  and  _365
REMARK  158  A    between atoms: _367  and  _369
REMARK  159  A    between atoms: _369  and  _370
REMARK  160  A    between atoms: _373  and  _375
REMARK  161  A    between atoms: _375  and  _376
REMARK  162  A    between atoms: _375  and  _378
REMARK  163  A    between atoms: _378  and  _379
REMARK  164  A    between atoms: _384  and  _385
REMARK  165  A    between atoms: _387  and  _389
REMARK  166  A    between atoms: _389  and  _390
REMARK  167  A    between atoms: _389  and  _392
REMARK  168  A    between atoms: _395  and  _397
REMARK  169  A    between atoms: _397  and  _398
REMARK  170  A    between atoms: _397  and  _400
REMARK  171  A    between atoms: _400  and  _401
REMARK  172  A    between atoms: _404  and  _406
REMARK  173  A    between atoms: _406  and  _407
REMARK  174  A    between atoms: _406  and  _409
REMARK  175  A    between atoms: _412  and  _414
REMARK  176  A    between atoms: _414  and  _415
REMARK  177  A    between atoms: _414  and  _417
REMARK  178  A    between atoms: _417  and  _418
REMARK  179  A    between atoms: _421  and  _423
REMARK  180  A    between atoms: _423  and  _424
REMARK  181  A    between atoms: _423  and  _426
REMARK  182  A    between atoms: _426  and  _427
REMARK  183  A    between atoms: _430  and  _432
REMARK  184  A    between atoms: _432  and  _433
REMARK  185  A    between atoms: _432  and  _435
REMARK  186  A    between atoms: _435  and  _436
REMARK  187  A    between atoms: _436  and  _437
REMARK  188  A    between atoms: _437  and  _438
REMARK  189  A    between atoms: _438  and  _439
REMARK  190  A    between atoms: _443  and  _445
REMARK  191  A    between atoms: _445  and  _446
REMARK  192  A    between atoms: _445  and  _448
REMARK  193  A    between atoms: _448  and  _449
REMARK  194  A    between atoms: _454  and  _456
REMARK  195  A    between atoms: _456  and  _457
REMARK  196  A    between atoms: _456  and  _459
REMARK  197  A    between atoms: _459  and  _460
REMARK  198  A    between atoms: _470  and  _472
REMARK  199  A    between atoms: _472  and  _473
REMARK  200  A    between atoms: _472  and  _475
REMARK  201  A    between atoms: _475  and  _476
REMARK  202  A    between atoms: _476  and  _477
REMARK  203  A    between atoms: _479  and  _481
REMARK  204  A    between atoms: _481  and  _482
REMARK  205  A    between atoms: _481  and  _484
REMARK  206  A    between atoms: _484  and  _485
REMARK  207  A    between atoms: _485  and  _486
REMARK  208  A    between atoms: _486  and  _487
REMARK  209  A    between atoms: _496  and  _498
REMARK  210  A    between atoms: _498  and  _499
REMARK  211  A    between atoms: _501  and  _503
REMARK  212  A    between atoms: _503  and  _504
REMARK  213  A    between atoms: _503  and  _506
REMARK  214  A    between atoms: _506  and  _507
REMARK  215  A    between atoms: _510  and  _512
REMARK  216  A    between atoms: _512  and  _513
REMARK  217  A    between atoms: _512  and  _515
REMARK  218  A    between atoms: _515  and  _516
REMARK  219  A    between atoms: _516  and  _517
REMARK  220  A    between atoms: _517  and  _518
REMARK  221  A    between atoms: _518  and  _519
REMARK  222  A    between atoms: _523  and  _525
REMARK  223  A    between atoms: _525  and  _526
REMARK  224  A    between atoms: _525  and  _528
REMARK  225  A    between atoms: _531  and  _533
REMARK  226  A    between atoms: _533  and  _534
REMARK  227  A    between atoms: _533  and  _536
REMARK  228  A    between atoms: _536  and  _537
REMARK  229  A    between atoms: _540  and  _542
REMARK  230  A    between atoms: _542  and  _543
REMARK  231  A    between atoms: _542  and  _545
REMARK  232  A    between atoms: _545  and  _546
REMARK                            x       y       z     vdW  Elec       q    Type
REMARK                         _______ _______ _______ _____ _____    ______ ____
ROOT
ATOM      1  O   HOH     1      -3.829  31.829  -6.433  0.00  0.00    +0.000 OA
ENDROOT
TORSDOF 0
REMARK  Name = ../refined-set-2016/1yc1/1yc1_pocket.pdb
REMARK  232 active torsions:
REMARK  status: ('A' for Active; 'I' for Inactive)
REMARK    1  A    between atoms: _1  and  _3
REMARK    2  A    between atoms: _3  and  _4
REMARK    3  A    between atoms: _3  and  _6
REMARK    4  A    between atoms: _6  and  _7
REMARK    5  A    between atoms: _13  and  _15
REMARK    6  A    between atoms: _15  and  _16
REMARK    7  A    between atoms: _15  and  _18
REMARK    8  A    between atoms: _18  and  _19
REMARK    9  A    between atoms: _19  and  _20
REMARK   10  A    between atoms: _23  and  _25
REMARK   11  A    between atoms: _25  and  _26
REMARK   12  A    between atoms: _25  and  _28
REMARK   13  A    between atoms: _28  and  _29
REMARK   14  A    between atoms: _32  and  _34
REMARK   15  A    between atoms: _34  and  _35
REMARK   16  A    between atoms: _34  and  _37
REMARK   17  A    between atoms: _37  and  _38
REMARK   18  A    between atoms: _41  and  _43
REMARK   19  A    between atoms: _43  and  _44
REMARK   20  A    between atoms: _43  and  _46
REMARK   21  A    between atoms: _46  and  _47
REMARK   22  A    between atoms: _49  and  _51
REMARK   23  A    between atoms: _51  and  _52
REMARK   24  A    between atoms: _51  and  _54
REMARK   25  A    between atoms: _54  and  _55
REMARK   26  A    between atoms: _60  and  _62
REMARK   27  A    between atoms: _62  and  _63
REMARK   28  A    between atoms: _62  and  _65
REMARK   29  A    between atoms: _65  and  _66
REMARK   30  A    between atoms: _68  and  _70
REMARK   31  A    between atoms: _70  and  _71
REMARK   32  A    between atoms: _70  and  _73
REMARK   33  A    between atoms: _73  and  _74
REMARK   34  A    between atoms: _76  and  _78
REMARK   35  A    between atoms: _78  and  _79
REMARK   36  A    between atoms: _78  and  _81
REMARK   37  A    between atoms: _81  and  _82
REMARK   38  A    between atoms: _85  and  _87
REMARK   39  A    between atoms: _87  and  _88
REMARK   40  A    between atoms: _91  and  _93
REMARK   41  A    between atoms: _93  and  _94
REMARK   42  A    between atoms: _93  and  _96
REMARK   43  A    between atoms: _96  and  _97
REMARK   44  A    between atoms: _100  and  _102
REMARK   45  A    between atoms: _102  and  _103
REMARK   46  A    between atoms: _102  and  _105
REMARK   47  A    between atoms: _105  and  _106
REMARK   48  A    between atoms: _109  and  _111
REMARK   49  A    between atoms: _111  and  _112
REMARK   50  A    between atoms: _111  and  _114
REMARK   51  A    between atoms: _114  and  _115
REMARK   52  A    between atoms: _115  and  _116
REMARK   53  A    between atoms: _116  and  _117
REMARK   54  A    between atoms: _117  and  _118
REMARK   55  A    between atoms: _122  and  _124
REMARK   56  A    between atoms: _124  and  _125
REMARK   57  A    between atoms: _124  and  _127
REMARK   58  A    between atoms: _127  and  _128
REMARK   59  A    between atoms: _131  and  _133
REMARK   60  A    between atoms: _133  and  _134
REMARK   61  A    between atoms: _133  and  _136
REMARK   62  A    between atoms: _136  and  _137
REMARK   63  A    between atoms: _140  and  _142
REMARK   64  A    between atoms: _142  and  _143
REMARK   65  A    between atoms: _142  and  _145
REMARK   66  A    between atoms: _145  and  _146
REMARK   67  A    between atoms: _149  and  _151
REMARK   68  A    between atoms: _151  and  _152
REMARK   69  A    between atoms: _151  and  _154
REMARK   70  A    between atoms: _157  and  _159
REMARK   71  A    between atoms: _159  and  _160
REMARK   72  A    between atoms: _159  and  _162
REMARK   73  A    between atoms: _162  and  _163
REMARK   74  A    between atoms: _166  and  _168
REMARK   75  A    between atoms: _168  and  _169
REMARK   76  A    between atoms: _168  and  _171
REMARK   77  A    between atoms: _171  and  _172
REMARK   78  A    between atoms: _175  and  _177
REMARK   79  A    between atoms: _177  and  _178
REMARK   80  A    between atoms: _180  and  _182
REMARK   81  A    between atoms: _182  and  _183
REMARK   82  A    between atoms: _182  and  _185
REMARK   83  A    between atoms: _185  and  _186
REMARK   84  A    between atoms: _189  and  _191
REMARK   85  A    between atoms: _191  and  _192
REMARK   86  A    between atoms: _194  and  _196
REMARK   87  A    between atoms: _196  and  _197
REMARK   88  A    between atoms: _196  and  _199
REMARK   89  A    between atoms: _199  and  _200
REMARK   90  A    between atoms: _200  and  _201
REMARK   91  A    between atoms: _203  and  _205
REMARK   92  A    between atoms: _205  and  _206
REMARK   93  A    between atoms: _205  and  _208
REMARK   94  A    between atoms: _208  and  _209
REMARK   95  A    between atoms: _212  and  _214
REMARK   96  A    between atoms: _214  and  _215
REMARK   97  A    between atoms: _214  and  _217
REMARK   98  A    between atoms: _217  and  _218
REMARK   99  A    between atoms: _221  and  _223
REMARK  100  A    between atoms: _223  and  _224
REMARK  101  A    between atoms: _223  and  _226
REMARK  102  A    between atoms: _226  and  _227
REMARK  103  A    between atoms: _230  and  _232
REMARK  104  A    between atoms: _232  and  _233
REMARK  105  A    between atoms: _232  and  _235
REMARK  106  A    between atoms: _235  and  _236
REMARK  107  A    between atoms: _241  and  _243
REMARK  108  A    between atoms: _243  and  _244
REMARK  109  A    between atoms: _243  and  _246
REMARK  110  A    between atoms: _246  and  _247
REMARK  111  A    between atoms: _252  and  _254
REMARK  112  A    between atoms: _254  and  _255
REMARK  113  A    between atoms: _254  and  _257
REMARK  114  A    between atoms: _257  and  _258
REMARK  115  A    between atoms: _261  and  _263
REMARK  116  A    between atoms: _263  and  _264
REMARK  117  A    between atoms: _263  and  _266
REMARK  118  A    between atoms: _266  and  _267
REMARK  119  A    between atoms: _270  and  _272
REMARK  120  A    between atoms: _272  and  _273
REMARK  121  A    between atoms: _272  and  _275
REMARK  122  A    between atoms: _275  and  _276
REMARK  123  A    between atoms: _279  and  _281
REMARK  124  A    between atoms: _281  and  _282
REMARK  125  A    between atoms: _285  and  _287
REMARK  126  A    between atoms: _287  and  _288
REMARK  127  A    between atoms: _287  and  _290
REMARK  128  A    between atoms: _290  and  _291
REMARK  129  A    between atoms: _291  and  _292
REMARK  130  A    between atoms: _292  and  _293
REMARK  131  A    between atoms: _293  and  _294
REMARK  132  A    between atoms: _298  and  _300
REMARK  133  A    between atoms: _300  and  _301
REMARK  134  A    between atoms: _300  and  _303
REMARK  135  A    between atoms: _303  and  _304
REMARK  136  A    between atoms: _306  and  _308
REMARK  137  A    between atoms: _308  and  _309
REMARK  138  A    between atoms: _311  and  _313
REMARK  139  A    between atoms: _313  and  _314
REMARK  140  A    between atoms: _313  and  _316
REMARK  141  A    between atoms: _316  and  _317
REMARK  142  A    between atoms: _323  and  _325
REMARK  143  A    between atoms: _325  and  _326
REMARK  144  A    between atoms: _328  and  _330
REMARK  145  A    between atoms: _330  and  _331
REMARK  146  A    between atoms: _330  and  _333
REMARK  147  A    between atoms: _336  and  _338
REMARK  148  A    between atoms: _338  and  _339
REMARK  149  A    between atoms: _341  and  _343
REMARK  150  A    between atoms: _343  and  _344
REMARK  151  A    between atoms: _343  and  _346
REMARK  152  A    between atoms: _346  and  _347
REMARK  153  A    between atoms: _353  and  _355
REMARK  154  A    between atoms: _355  and  _356
REMARK  155  A    between atoms: _355  and  _358
REMARK  156  A    between atoms: _358  and  _359
REMARK  157  A    between atoms: _364  and  _365
REMARK  158  A    between atoms: _367  and  _369
REMARK  159  A    between atoms: _369  and  _370
REMARK  160  A    between atoms: _373  and  _375
REMARK  161  A    between atoms: _375  and  _376
REMARK  162  A    between atoms: _375  and  _378
REMARK  163  A    between atoms: _378  and  _379
REMARK  164  A    between atoms: _384  and  _385
REMARK  165  A    between atoms: _387  and  _389
REMARK  166  A    between atoms: _389  and  _390
REMARK  167  A    between atoms: _389  and  _392
REMARK  168  A    between atoms: _395  and  _397
REMARK  169  A    between atoms: _397  and  _398
REMARK  170  A    between atoms: _397  and  _400
REMARK  171  A    between atoms: _400  and  _401
REMARK  172  A    between atoms: _404  and  _406
REMARK  173  A    between atoms: _406  and  _407
REMARK  174  A    between atoms: _406  and  _409
REMARK  175  A    between atoms: _412  and  _414
REMARK  176  A    between atoms: _414  and  _415
REMARK  177  A    between atoms: _414  and  _417
REMARK  178  A    between atoms: _417  and  _418
REMARK  179  A    between atoms: _421  and  _423
REMARK  180  A    between atoms: _423  and  _424
REMARK  181  A    between atoms: _423  and  _426
REMARK  182  A    between atoms: _426  and  _427
REMARK  183  A    between atoms: _430  and  _432
REMARK  184  A    between atoms: _432  and  _433
REMARK  185  A    between atoms: _432  and  _435
REMARK  186  A    between atoms: _435  and  _436
REMARK  187  A    between atoms: _436  and  _437
REMARK  188  A    between atoms: _437  and  _438
REMARK  189  A    between atoms: _438  and  _439
REMARK  190  A    between atoms: _443  and  _445
REMARK  191  A    between atoms: _445  and  _446
REMARK  192  A    between atoms: _445  and  _448
REMARK  193  A    between atoms: _448  and  _449
REMARK  194  A    between atoms: _454  and  _456
REMARK  195  A    between atoms: _456  and  _457
REMARK  196  A    between atoms: _456  and  _459
REMARK  197  A    between atoms: _459  and  _460
REMARK  198  A    between atoms: _470  and  _472
REMARK  199  A    between atoms: _472  and  _473
REMARK  200  A    between atoms: _472  and  _475
REMARK  201  A    between atoms: _475  and  _476
REMARK  202  A    between atoms: _476  and  _477
REMARK  203  A    between atoms: _479  and  _481
REMARK  204  A    between atoms: _481  and  _482
REMARK  205  A    between atoms: _481  and  _484
REMARK  206  A    between atoms: _484  and  _485
REMARK  207  A    between atoms: _485  and  _486
REMARK  208  A    between atoms: _486  and  _487
REMARK  209  A    between atoms: _496  and  _498
REMARK  210  A    between atoms: _498  and  _499
REMARK  211  A    between atoms: _501  and  _503
REMARK  212  A    between atoms: _503  and  _504
REMARK  213  A    between atoms: _503  and  _506
REMARK  214  A    between atoms: _506  and  _507
REMARK  215  A    between atoms: _510  and  _512
REMARK  216  A    between atoms: _512  and  _513
REMARK  217  A    between atoms: _512  and  _515
REMARK  218  A    between atoms: _515  and  _516
REMARK  219  A    between atoms: _516  and  _517
REMARK  220  A    between atoms: _517  and  _518
REMARK  221  A    between atoms: _518  and  _519
REMARK  222  A    between atoms: _523  and  _525
REMARK  223  A    between atoms: _525  and  _526
REMARK  224  A    between atoms: _525  and  _528
REMARK  225  A    between atoms: _531  and  _533
REMARK  226  A    between atoms: _533  and  _534
REMARK  227  A    between atoms: _533  and  _536
REMARK  228  A    between atoms: _536  and  _537
REMARK  229  A    between atoms: _540  and  _542
REMARK  230  A    between atoms: _542  and  _543
REMARK  231  A    between atoms: _542  and  _545
REMARK  232  A    between atoms: _545  and  _546
REMARK                            x       y       z     vdW  Elec       q    Type
REMARK                         _______ _______ _______ _____ _____    ______ ____
ROOT
ATOM      1  O   HOH     1      -4.497  29.407  -0.726  0.00  0.00    +0.000 OA
ENDROOT
TORSDOF 0
REMARK  Name = ../refined-set-2016/1yc1/1yc1_pocket.pdb
REMARK  232 active torsions:
REMARK  status: ('A' for Active; 'I' for Inactive)
REMARK    1  A    between atoms: _1  and  _3
REMARK    2  A    between atoms: _3  and  _4
REMARK    3  A    between atoms: _3  and  _6
REMARK    4  A    between atoms: _6  and  _7
REMARK    5  A    between atoms: _13  and  _15
REMARK    6  A    between atoms: _15  and  _16
REMARK    7  A    between atoms: _15  and  _18
REMARK    8  A    between atoms: _18  and  _19
REMARK    9  A    between atoms: _19  and  _20
REMARK   10  A    between atoms: _23  and  _25
REMARK   11  A    between atoms: _25  and  _26
REMARK   12  A    between atoms: _25  and  _28
REMARK   13  A    between atoms: _28  and  _29
REMARK   14  A    between atoms: _32  and  _34
REMARK   15  A    between atoms: _34  and  _35
REMARK   16  A    between atoms: _34  and  _37
REMARK   17  A    between atoms: _37  and  _38
REMARK   18  A    between atoms: _41  and  _43
REMARK   19  A    between atoms: _43  and  _44
REMARK   20  A    between atoms: _43  and  _46
REMARK   21  A    between atoms: _46  and  _47
REMARK   22  A    between atoms: _49  and  _51
REMARK   23  A    between atoms: _51  and  _52
REMARK   24  A    between atoms: _51  and  _54
REMARK   25  A    between atoms: _54  and  _55
REMARK   26  A    between atoms: _60  and  _62
REMARK   27  A    between atoms: _62  and  _63
REMARK   28  A    between atoms: _62  and  _65
REMARK   29  A    between atoms: _65  and  _66
REMARK   30  A    between atoms: _68  and  _70
REMARK   31  A    between atoms: _70  and  _71
REMARK   32  A    between atoms: _70  and  _73
REMARK   33  A    between atoms: _73  and  _74
REMARK   34  A    between atoms: _76  and  _78
REMARK   35  A    between atoms: _78  and  _79
REMARK   36  A    between atoms: _78  and  _81
REMARK   37  A    between atoms: _81  and  _82
REMARK   38  A    between atoms: _85  and  _87
REMARK   39  A    between atoms: _87  and  _88
REMARK   40  A    between atoms: _91  and  _93
REMARK   41  A    between atoms: _93  and  _94
REMARK   42  A    between atoms: _93  and  _96
REMARK   43  A    between atoms: _96  and  _97
REMARK   44  A    between atoms: _100  and  _102
REMARK   45  A    between atoms: _102  and  _103
REMARK   46  A    between atoms: _102  and  _105
REMARK   47  A    between atoms: _105  and  _106
REMARK   48  A    between atoms: _109  and  _111
REMARK   49  A    between atoms: _111  and  _112
REMARK   50  A    between atoms: _111  and  _114
REMARK   51  A    between atoms: _114  and  _115
REMARK   52  A    between atoms: _115  and  _116
REMARK   53  A    between atoms: _116  and  _117
REMARK   54  A    between atoms: _117  and  _118
REMARK   55  A    between atoms: _122  and  _124
REMARK   56  A    between atoms: _124  and  _125
REMARK   57  A    between atoms: _124  and  _127
REMARK   58  A    between atoms: _127  and  _128
REMARK   59  A    between atoms: _131  and  _133
REMARK   60  A    between atoms: _133  and  _134
REMARK   61  A    between atoms: _133  and  _136
REMARK   62  A    between atoms: _136  and  _137
REMARK   63  A    between atoms: _140  and  _142
REMARK   64  A    between atoms: _142  and  _143
REMARK   65  A    between atoms: _142  and  _145
REMARK   66  A    between atoms: _145  and  _146
REMARK   67  A    between atoms: _149  and  _151
REMARK   68  A    between atoms: _151  and  _152
REMARK   69  A    between atoms: _151  and  _154
REMARK   70  A    between atoms: _157  and  _159
REMARK   71  A    between atoms: _159  and  _160
REMARK   72  A    between atoms: _159  and  _162
REMARK   73  A    between atoms: _162  and  _163
REMARK   74  A    between atoms: _166  and  _168
REMARK   75  A    between atoms: _168  and  _169
REMARK   76  A    between atoms: _168  and  _171
REMARK   77  A    between atoms: _171  and  _172
REMARK   78  A    between atoms: _175  and  _177
REMARK   79  A    between atoms: _177  and  _178
REMARK   80  A    between atoms: _180  and  _182
REMARK   81  A    between atoms: _182  and  _183
REMARK   82  A    between atoms: _182  and  _185
REMARK   83  A    between atoms: _185  and  _186
REMARK   84  A    between atoms: _189  and  _191
REMARK   85  A    between atoms: _191  and  _192
REMARK   86  A    between atoms: _194  and  _196
REMARK   87  A    between atoms: _196  and  _197
REMARK   88  A    between atoms: _196  and  _199
REMARK   89  A    between atoms: _199  and  _200
REMARK   90  A    between atoms: _200  and  _201
REMARK   91  A    between atoms: _203  and  _205
REMARK   92  A    between atoms: _205  and  _206
REMARK   93  A    between atoms: _205  and  _208
REMARK   94  A    between atoms: _208  and  _209
REMARK   95  A    between atoms: _212  and  _214
REMARK   96  A    between atoms: _214  and  _215
REMARK   97  A    between atoms: _214  and  _217
REMARK   98  A    between atoms: _217  and  _218
REMARK   99  A    between atoms: _221  and  _223
REMARK  100  A    between atoms: _223  and  _224
REMARK  101  A    between atoms: _223  and  _226
REMARK  102  A    between atoms: _226  and  _227
REMARK  103  A    between atoms: _230  and  _232
REMARK  104  A    between atoms: _232  and  _233
REMARK  105  A    between atoms: _232  and  _235
REMARK  106  A    between atoms: _235  and  _236
REMARK  107  A    between atoms: _241  and  _243
REMARK  108  A    between atoms: _243  and  _244
REMARK  109  A    between atoms: _243  and  _246
REMARK  110  A    between atoms: _246  and  _247
REMARK  111  A    between atoms: _252  and  _254
REMARK  112  A    between atoms: _254  and  _255
REMARK  113  A    between atoms: _254  and  _257
REMARK  114  A    between atoms: _257  and  _258
REMARK  115  A    between atoms: _261  and  _263
REMARK  116  A    between atoms: _263  and  _264
REMARK  117  A    between atoms: _263  and  _266
REMARK  118  A    between atoms: _266  and  _267
REMARK  119  A    between atoms: _270  and  _272
REMARK  120  A    between atoms: _272  and  _273
REMARK  121  A    between atoms: _272  and  _275
REMARK  122  A    between atoms: _275  and  _276
REMARK  123  A    between atoms: _279  and  _281
REMARK  124  A    between atoms: _281  and  _282
REMARK  125  A    between atoms: _285  and  _287
REMARK  126  A    between atoms: _287  and  _288
REMARK  127  A    between atoms: _287  and  _290
REMARK  128  A    between atoms: _290  and  _291
REMARK  129  A    between atoms: _291  and  _292
REMARK  130  A    between atoms: _292  and  _293
REMARK  131  A    between atoms: _293  and  _294
REMARK  132  A    between atoms: _298  and  _300
REMARK  133  A    between atoms: _300  and  _301
REMARK  134  A    between atoms: _300  and  _303
REMARK  135  A    between atoms: _303  and  _304
REMARK  136  A    between atoms: _306  and  _308
REMARK  137  A    between atoms: _308  and  _309
REMARK  138  A    between atoms: _311  and  _313
REMARK  139  A    between atoms: _313  and  _314
REMARK  140  A    between atoms: _313  and  _316
REMARK  141  A    between atoms: _316  and  _317
REMARK  142  A    between atoms: _323  and  _325
REMARK  143  A    between atoms: _325  and  _326
REMARK  144  A    between atoms: _328  and  _330
REMARK  145  A    between atoms: _330  and  _331
REMARK  146  A    between atoms: _330  and  _333
REMARK  147  A    between atoms: _336  and  _338
REMARK  148  A    between atoms: _338  and  _339
REMARK  149  A    between atoms: _341  and  _343
REMARK  150  A    between atoms: _343  and  _344
REMARK  151  A    between atoms: _343  and  _346
REMARK  152  A    between atoms: _346  and  _347
REMARK  153  A    between atoms: _353  and  _355
REMARK  154  A    between atoms: _355  and  _356
REMARK  155  A    between atoms: _355  and  _358
REMARK  156  A    between atoms: _358  and  _359
REMARK  157  A    between atoms: _364  and  _365
REMARK  158  A    between atoms: _367  and  _369
REMARK  159  A    between atoms: _369  and  _370
REMARK  160  A    between atoms: _373  and  _375
REMARK  161  A    between atoms: _375  and  _376
REMARK  162  A    between atoms: _375  and  _378
REMARK  163  A    between atoms: _378  and  _379
REMARK  164  A    between atoms: _384  and  _385
REMARK  165  A    between atoms: _387  and  _389
REMARK  166  A    between atoms: _389  and  _390
REMARK  167  A    between atoms: _389  and  _392
REMARK  168  A    between atoms: _395  and  _397
REMARK  169  A    between atoms: _397  and  _398
REMARK  170  A    between atoms: _397  and  _400
REMARK  171  A    between atoms: _400  and  _401
REMARK  172  A    between atoms: _404  and  _406
REMARK  173  A    between atoms: _406  and  _407
REMARK  174  A    between atoms: _406  and  _409
REMARK  175  A    between atoms: _412  and  _414
REMARK  176  A    between atoms: _414  and  _415
REMARK  177  A    between atoms: _414  and  _417
REMARK  178  A    between atoms: _417  and  _418
REMARK  179  A    between atoms: _421  and  _423
REMARK  180  A    between atoms: _423  and  _424
REMARK  181  A    between atoms: _423  and  _426
REMARK  182  A    between atoms: _426  and  _427
REMARK  183  A    between atoms: _430  and  _432
REMARK  184  A    between atoms: _432  and  _433
REMARK  185  A    between atoms: _432  and  _435
REMARK  186  A    between atoms: _435  and  _436
REMARK  187  A    between atoms: _436  and  _437
REMARK  188  A    between atoms: _437  and  _438
REMARK  189  A    between atoms: _438  and  _439
REMARK  190  A    between atoms: _443  and  _445
REMARK  191  A    between atoms: _445  and  _446
REMARK  192  A    between atoms: _445  and  _448
REMARK  193  A    between atoms: _448  and  _449
REMARK  194  A    between atoms: _454  and  _456
REMARK  195  A    between atoms: _456  and  _457
REMARK  196  A    between atoms: _456  and  _459
REMARK  197  A    between atoms: _459  and  _460
REMARK  198  A    between atoms: _470  and  _472
REMARK  199  A    between atoms: _472  and  _473
REMARK  200  A    between atoms: _472  and  _475
REMARK  201  A    between atoms: _475  and  _476
REMARK  202  A    between atoms: _476  and  _477
REMARK  203  A    between atoms: _479  and  _481
REMARK  204  A    between atoms: _481  and  _482
REMARK  205  A    between atoms: _481  and  _484
REMARK  206  A    between atoms: _484  and  _485
REMARK  207  A    between atoms: _485  and  _486
REMARK  208  A    between atoms: _486  and  _487
REMARK  209  A    between atoms: _496  and  _498
REMARK  210  A    between atoms: _498  and  _499
REMARK  211  A    between atoms: _501  and  _503
REMARK  212  A    between atoms: _503  and  _504
REMARK  213  A    between atoms: _503  and  _506
REMARK  214  A    between atoms: _506  and  _507
REMARK  215  A    between atoms: _510  and  _512
REMARK  216  A    between atoms: _512  and  _513
REMARK  217  A    between atoms: _512  and  _515
REMARK  218  A    between atoms: _515  and  _516
REMARK  219  A    between atoms: _516  and  _517
REMARK  220  A    between atoms: _517  and  _518
REMARK  221  A    between atoms: _518  and  _519
REMARK  222  A    between atoms: _523  and  _525
REMARK  223  A    between atoms: _525  and  _526
REMARK  224  A    between atoms: _525  and  _528
REMARK  225  A    between atoms: _531  and  _533
REMARK  226  A    between atoms: _533  and  _534
REMARK  227  A    between atoms: _533  and  _536
REMARK  228  A    between atoms: _536  and  _537
REMARK  229  A    between atoms: _540  and  _542
REMARK  230  A    between atoms: _542  and  _543
REMARK  231  A    between atoms: _542  and  _545
REMARK  232  A    between atoms: _545  and  _546
REMARK                            x       y       z     vdW  Elec       q    Type
REMARK                         _______ _______ _______ _____ _____    ______ ____
ROOT
ATOM      1  O   HOH     1       7.626  38.547  -3.104  0.00  0.00    +0.000 OA
ENDROOT
TORSDOF 0
REMARK  Name = ../refined-set-2016/1yc1/1yc1_pocket.pdb
REMARK  232 active torsions:
REMARK  status: ('A' for Active; 'I' for Inactive)
REMARK    1  A    between atoms: _1  and  _3
REMARK    2  A    between atoms: _3  and  _4
REMARK    3  A    between atoms: _3  and  _6
REMARK    4  A    between atoms: _6  and  _7
REMARK    5  A    between atoms: _13  and  _15
REMARK    6  A    between atoms: _15  and  _16
REMARK    7  A    between atoms: _15  and  _18
REMARK    8  A    between atoms: _18  and  _19
REMARK    9  A    between atoms: _19  and  _20
REMARK   10  A    between atoms: _23  and  _25
REMARK   11  A    between atoms: _25  and  _26
REMARK   12  A    between atoms: _25  and  _28
REMARK   13  A    between atoms: _28  and  _29
REMARK   14  A    between atoms: _32  and  _34
REMARK   15  A    between atoms: _34  and  _35
REMARK   16  A    between atoms: _34  and  _37
REMARK   17  A    between atoms: _37  and  _38
REMARK   18  A    between atoms: _41  and  _43
REMARK   19  A    between atoms: _43  and  _44
REMARK   20  A    between atoms: _43  and  _46
REMARK   21  A    between atoms: _46  and  _47
REMARK   22  A    between atoms: _49  and  _51
REMARK   23  A    between atoms: _51  and  _52
REMARK   24  A    between atoms: _51  and  _54
REMARK   25  A    between atoms: _54  and  _55
REMARK   26  A    between atoms: _60  and  _62
REMARK   27  A    between atoms: _62  and  _63
REMARK   28  A    between atoms: _62  and  _65
REMARK   29  A    between atoms: _65  and  _66
REMARK   30  A    between atoms: _68  and  _70
REMARK   31  A    between atoms: _70  and  _71
REMARK   32  A    between atoms: _70  and  _73
REMARK   33  A    between atoms: _73  and  _74
REMARK   34  A    between atoms: _76  and  _78
REMARK   35  A    between atoms: _78  and  _79
REMARK   36  A    between atoms: _78  and  _81
REMARK   37  A    between atoms: _81  and  _82
REMARK   38  A    between atoms: _85  and  _87
REMARK   39  A    between atoms: _87  and  _88
REMARK   40  A    between atoms: _91  and  _93
REMARK   41  A    between atoms: _93  and  _94
REMARK   42  A    between atoms: _93  and  _96
REMARK   43  A    between atoms: _96  and  _97
REMARK   44  A    between atoms: _100  and  _102
REMARK   45  A    between atoms: _102  and  _103
REMARK   46  A    between atoms: _102  and  _105
REMARK   47  A    between atoms: _105  and  _106
REMARK   48  A    between atoms: _109  and  _111
REMARK   49  A    between atoms: _111  and  _112
REMARK   50  A    between atoms: _111  and  _114
REMARK   51  A    between atoms: _114  and  _115
REMARK   52  A    between atoms: _115  and  _116
REMARK   53  A    between atoms: _116  and  _117
REMARK   54  A    between atoms: _117  and  _118
REMARK   55  A    between atoms: _122  and  _124
REMARK   56  A    between atoms: _124  and  _125
REMARK   57  A    between atoms: _124  and  _127
REMARK   58  A    between atoms: _127  and  _128
REMARK   59  A    between atoms: _131  and  _133
REMARK   60  A    between atoms: _133  and  _134
REMARK   61  A    between atoms: _133  and  _136
REMARK   62  A    between atoms: _136  and  _137
REMARK   63  A    between atoms: _140  and  _142
REMARK   64  A    between atoms: _142  and  _143
REMARK   65  A    between atoms: _142  and  _145
REMARK   66  A    between atoms: _145  and  _146
REMARK   67  A    between atoms: _149  and  _151
REMARK   68  A    between atoms: _151  and  _152
REMARK   69  A    between atoms: _151  and  _154
REMARK   70  A    between atoms: _157  and  _159
REMARK   71  A    between atoms: _159  and  _160
REMARK   72  A    between atoms: _159  and  _162
REMARK   73  A    between atoms: _162  and  _163
REMARK   74  A    between atoms: _166  and  _168
REMARK   75  A    between atoms: _168  and  _169
REMARK   76  A    between atoms: _168  and  _171
REMARK   77  A    between atoms: _171  and  _172
REMARK   78  A    between atoms: _175  and  _177
REMARK   79  A    between atoms: _177  and  _178
REMARK   80  A    between atoms: _180  and  _182
REMARK   81  A    between atoms: _182  and  _183
REMARK   82  A    between atoms: _182  and  _185
REMARK   83  A    between atoms: _185  and  _186
REMARK   84  A    between atoms: _189  and  _191
REMARK   85  A    between atoms: _191  and  _192
REMARK   86  A    between atoms: _194  and  _196
REMARK   87  A    between atoms: _196  and  _197
REMARK   88  A    between atoms: _196  and  _199
REMARK   89  A    between atoms: _199  and  _200
REMARK   90  A    between atoms: _200  and  _201
REMARK   91  A    between atoms: _203  and  _205
REMARK   92  A    between atoms: _205  and  _206
REMARK   93  A    between atoms: _205  and  _208
REMARK   94  A    between atoms: _208  and  _209
REMARK   95  A    between atoms: _212  and  _214
REMARK   96  A    between atoms: _214  and  _215
REMARK   97  A    between atoms: _214  and  _217
REMARK   98  A    between atoms: _217  and  _218
REMARK   99  A    between atoms: _221  and  _223
REMARK  100  A    between atoms: _223  and  _224
REMARK  101  A    between atoms: _223  and  _226
REMARK  102  A    between atoms: _226  and  _227
REMARK  103  A    between atoms: _230  and  _232
REMARK  104  A    between atoms: _232  and  _233
REMARK  105  A    between atoms: _232  and  _235
REMARK  106  A    between atoms: _235  and  _236
REMARK  107  A    between atoms: _241  and  _243
REMARK  108  A    between atoms: _243  and  _244
REMARK  109  A    between atoms: _243  and  _246
REMARK  110  A    between atoms: _246  and  _247
REMARK  111  A    between atoms: _252  and  _254
REMARK  112  A    between atoms: _254  and  _255
REMARK  113  A    between atoms: _254  and  _257
REMARK  114  A    between atoms: _257  and  _258
REMARK  115  A    between atoms: _261  and  _263
REMARK  116  A    between atoms: _263  and  _264
REMARK  117  A    between atoms: _263  and  _266
REMARK  118  A    between atoms: _266  and  _267
REMARK  119  A    between atoms: _270  and  _272
REMARK  120  A    between atoms: _272  and  _273
REMARK  121  A    between atoms: _272  and  _275
REMARK  122  A    between atoms: _275  and  _276
REMARK  123  A    between atoms: _279  and  _281
REMARK  124  A    between atoms: _281  and  _282
REMARK  125  A    between atoms: _285  and  _287
REMARK  126  A    between atoms: _287  and  _288
REMARK  127  A    between atoms: _287  and  _290
REMARK  128  A    between atoms: _290  and  _291
REMARK  129  A    between atoms: _291  and  _292
REMARK  130  A    between atoms: _292  and  _293
REMARK  131  A    between atoms: _293  and  _294
REMARK  132  A    between atoms: _298  and  _300
REMARK  133  A    between atoms: _300  and  _301
REMARK  134  A    between atoms: _300  and  _303
REMARK  135  A    between atoms: _303  and  _304
REMARK  136  A    between atoms: _306  and  _308
REMARK  137  A    between atoms: _308  and  _309
REMARK  138  A    between atoms: _311  and  _313
REMARK  139  A    between atoms: _313  and  _314
REMARK  140  A    between atoms: _313  and  _316
REMARK  141  A    between atoms: _316  and  _317
REMARK  142  A    between atoms: _323  and  _325
REMARK  143  A    between atoms: _325  and  _326
REMARK  144  A    between atoms: _328  and  _330
REMARK  145  A    between atoms: _330  and  _331
REMARK  146  A    between atoms: _330  and  _333
REMARK  147  A    between atoms: _336  and  _338
REMARK  148  A    between atoms: _338  and  _339
REMARK  149  A    between atoms: _341  and  _343
REMARK  150  A    between atoms: _343  and  _344
REMARK  151  A    between atoms: _343  and  _346
REMARK  152  A    between atoms: _346  and  _347
REMARK  153  A    between atoms: _353  and  _355
REMARK  154  A    between atoms: _355  and  _356
REMARK  155  A    between atoms: _355  and  _358
REMARK  156  A    between atoms: _358  and  _359
REMARK  157  A    between atoms: _364  and  _365
REMARK  158  A    between atoms: _367  and  _369
REMARK  159  A    between atoms: _369  and  _370
REMARK  160  A    between atoms: _373  and  _375
REMARK  161  A    between atoms: _375  and  _376
REMARK  162  A    between atoms: _375  and  _378
REMARK  163  A    between atoms: _378  and  _379
REMARK  164  A    between atoms: _384  and  _385
REMARK  165  A    between atoms: _387  and  _389
REMARK  166  A    between atoms: _389  and  _390
REMARK  167  A    between atoms: _389  and  _392
REMARK  168  A    between atoms: _395  and  _397
REMARK  169  A    between atoms: _397  and  _398
REMARK  170  A    between atoms: _397  and  _400
REMARK  171  A    between atoms: _400  and  _401
REMARK  172  A    between atoms: _404  and  _406
REMARK  173  A    between atoms: _406  and  _407
REMARK  174  A    between atoms: _406  and  _409
REMARK  175  A    between atoms: _412  and  _414
REMARK  176  A    between atoms: _414  and  _415
REMARK  177  A    between atoms: _414  and  _417
REMARK  178  A    between atoms: _417  and  _418
REMARK  179  A    between atoms: _421  and  _423
REMARK  180  A    between atoms: _423  and  _424
REMARK  181  A    between atoms: _423  and  _426
REMARK  182  A    between atoms: _426  and  _427
REMARK  183  A    between atoms: _430  and  _432
REMARK  184  A    between atoms: _432  and  _433
REMARK  185  A    between atoms: _432  and  _435
REMARK  186  A    between atoms: _435  and  _436
REMARK  187  A    between atoms: _436  and  _437
REMARK  188  A    between atoms: _437  and  _438
REMARK  189  A    between atoms: _438  and  _439
REMARK  190  A    between atoms: _443  and  _445
REMARK  191  A    between atoms: _445  and  _446
REMARK  192  A    between atoms: _445  and  _448
REMARK  193  A    between atoms: _448  and  _449
REMARK  194  A    between atoms: _454  and  _456
REMARK  195  A    between atoms: _456  and  _457
REMARK  196  A    between atoms: _456  and  _459
REMARK  197  A    between atoms: _459  and  _460
REMARK  198  A    between atoms: _470  and  _472
REMARK  199  A    between atoms: _472  and  _473
REMARK  200  A    between atoms: _472  and  _475
REMARK  201  A    between atoms: _475  and  _476
REMARK  202  A    between atoms: _476  and  _477
REMARK  203  A    between atoms: _479  and  _481
REMARK  204  A    between atoms: _481  and  _482
REMARK  205  A    between atoms: _481  and  _484
REMARK  206  A    between atoms: _484  and  _485
REMARK  207  A    between atoms: _485  and  _486
REMARK  208  A    between atoms: _486  and  _487
REMARK  209  A    between atoms: _496  and  _498
REMARK  210  A    between atoms: _498  and  _499
REMARK  211  A    between atoms: _501  and  _503
REMARK  212  A    between atoms: _503  and  _504
REMARK  213  A    between atoms: _503  and  _506
REMARK  214  A    between atoms: _506  and  _507
REMARK  215  A    between atoms: _510  and  _512
REMARK  216  A    between atoms: _512  and  _513
REMARK  217  A    between atoms: _512  and  _515
REMARK  218  A    between atoms: _515  and  _516
REMARK  219  A    between atoms: _516  and  _517
REMARK  220  A    between atoms: _517  and  _518
REMARK  221  A    between atoms: _518  and  _519
REMARK  222  A    between atoms: _523  and  _525
REMARK  223  A    between atoms: _525  and  _526
REMARK  224  A    between atoms: _525  and  _528
REMARK  225  A    between atoms: _531  and  _533
REMARK  226  A    between atoms: _533  and  _534
REMARK  227  A    between atoms: _533  and  _536
REMARK  228  A    between atoms: _536  and  _537
REMARK  229  A    between atoms: _540  and  _542
REMARK  230  A    between atoms: _542  and  _543
REMARK  231  A    between atoms: _542  and  _545
REMARK  232  A    between atoms: _545  and  _546
REMARK                            x       y       z     vdW  Elec       q    Type
REMARK                         _______ _______ _______ _____ _____    ______ ____
ROOT
ATOM      1  O   HOH     1       6.337  38.090  -5.540  0.00  0.00    +0.000 OA
ENDROOT
TORSDOF 0
REMARK  Name = ../refined-set-2016/1yc1/1yc1_pocket.pdb
REMARK  232 active torsions:
REMARK  status: ('A' for Active; 'I' for Inactive)
REMARK    1  A    between atoms: _1  and  _3
REMARK    2  A    between atoms: _3  and  _4
REMARK    3  A    between atoms: _3  and  _6
REMARK    4  A    between atoms: _6  and  _7
REMARK    5  A    between atoms: _13  and  _15
REMARK    6  A    between atoms: _15  and  _16
REMARK    7  A    between atoms: _15  and  _18
REMARK    8  A    between atoms: _18  and  _19
REMARK    9  A    between atoms: _19  and  _20
REMARK   10  A    between atoms: _23  and  _25
REMARK   11  A    between atoms: _25  and  _26
REMARK   12  A    between atoms: _25  and  _28
REMARK   13  A    between atoms: _28  and  _29
REMARK   14  A    between atoms: _32  and  _34
REMARK   15  A    between atoms: _34  and  _35
REMARK   16  A    between atoms: _34  and  _37
REMARK   17  A    between atoms: _37  and  _38
REMARK   18  A    between atoms: _41  and  _43
REMARK   19  A    between atoms: _43  and  _44
REMARK   20  A    between atoms: _43  and  _46
REMARK   21  A    between atoms: _46  and  _47
REMARK   22  A    between atoms: _49  and  _51
REMARK   23  A    between atoms: _51  and  _52
REMARK   24  A    between atoms: _51  and  _54
REMARK   25  A    between atoms: _54  and  _55
REMARK   26  A    between atoms: _60  and  _62
REMARK   27  A    between atoms: _62  and  _63
REMARK   28  A    between atoms: _62  and  _65
REMARK   29  A    between atoms: _65  and  _66
REMARK   30  A    between atoms: _68  and  _70
REMARK   31  A    between atoms: _70  and  _71
REMARK   32  A    between atoms: _70  and  _73
REMARK   33  A    between atoms: _73  and  _74
REMARK   34  A    between atoms: _76  and  _78
REMARK   35  A    between atoms: _78  and  _79
REMARK   36  A    between atoms: _78  and  _81
REMARK   37  A    between atoms: _81  and  _82
REMARK   38  A    between atoms: _85  and  _87
REMARK   39  A    between atoms: _87  and  _88
REMARK   40  A    between atoms: _91  and  _93
REMARK   41  A    between atoms: _93  and  _94
REMARK   42  A    between atoms: _93  and  _96
REMARK   43  A    between atoms: _96  and  _97
REMARK   44  A    between atoms: _100  and  _102
REMARK   45  A    between atoms: _102  and  _103
REMARK   46  A    between atoms: _102  and  _105
REMARK   47  A    between atoms: _105  and  _106
REMARK   48  A    between atoms: _109  and  _111
REMARK   49  A    between atoms: _111  and  _112
REMARK   50  A    between atoms: _111  and  _114
REMARK   51  A    between atoms: _114  and  _115
REMARK   52  A    between atoms: _115  and  _116
REMARK   53  A    between atoms: _116  and  _117
REMARK   54  A    between atoms: _117  and  _118
REMARK   55  A    between atoms: _122  and  _124
REMARK   56  A    between atoms: _124  and  _125
REMARK   57  A    between atoms: _124  and  _127
REMARK   58  A    between atoms: _127  and  _128
REMARK   59  A    between atoms: _131  and  _133
REMARK   60  A    between atoms: _133  and  _134
REMARK   61  A    between atoms: _133  and  _136
REMARK   62  A    between atoms: _136  and  _137
REMARK   63  A    between atoms: _140  and  _142
REMARK   64  A    between atoms: _142  and  _143
REMARK   65  A    between atoms: _142  and  _145
REMARK   66  A    between atoms: _145  and  _146
REMARK   67  A    between atoms: _149  and  _151
REMARK   68  A    between atoms: _151  and  _152
REMARK   69  A    between atoms: _151  and  _154
REMARK   70  A    between atoms: _157  and  _159
REMARK   71  A    between atoms: _159  and  _160
REMARK   72  A    between atoms: _159  and  _162
REMARK   73  A    between atoms: _162  and  _163
REMARK   74  A    between atoms: _166  and  _168
REMARK   75  A    between atoms: _168  and  _169
REMARK   76  A    between atoms: _168  and  _171
REMARK   77  A    between atoms: _171  and  _172
REMARK   78  A    between atoms: _175  and  _177
REMARK   79  A    between atoms: _177  and  _178
REMARK   80  A    between atoms: _180  and  _182
REMARK   81  A    between atoms: _182  and  _183
REMARK   82  A    between atoms: _182  and  _185
REMARK   83  A    between atoms: _185  and  _186
REMARK   84  A    between atoms: _189  and  _191
REMARK   85  A    between atoms: _191  and  _192
REMARK   86  A    between atoms: _194  and  _196
REMARK   87  A    between atoms: _196  and  _197
REMARK   88  A    between atoms: _196  and  _199
REMARK   89  A    between atoms: _199  and  _200
REMARK   90  A    between atoms: _200  and  _201
REMARK   91  A    between atoms: _203  and  _205
REMARK   92  A    between atoms: _205  and  _206
REMARK   93  A    between atoms: _205  and  _208
REMARK   94  A    between atoms: _208  and  _209
REMARK   95  A    between atoms: _212  and  _214
REMARK   96  A    between atoms: _214  and  _215
REMARK   97  A    between atoms: _214  and  _217
REMARK   98  A    between atoms: _217  and  _218
REMARK   99  A    between atoms: _221  and  _223
REMARK  100  A    between atoms: _223  and  _224
REMARK  101  A    between atoms: _223  and  _226
REMARK  102  A    between atoms: _226  and  _227
REMARK  103  A    between atoms: _230  and  _232
REMARK  104  A    between atoms: _232  and  _233
REMARK  105  A    between atoms: _232  and  _235
REMARK  106  A    between atoms: _235  and  _236
REMARK  107  A    between atoms: _241  and  _243
REMARK  108  A    between atoms: _243  and  _244
REMARK  109  A    between atoms: _243  and  _246
REMARK  110  A    between atoms: _246  and  _247
REMARK  111  A    between atoms: _252  and  _254
REMARK  112  A    between atoms: _254  and  _255
REMARK  113  A    between atoms: _254  and  _257
REMARK  114  A    between atoms: _257  and  _258
REMARK  115  A    between atoms: _261  and  _263
REMARK  116  A    between atoms: _263  and  _264
REMARK  117  A    between atoms: _263  and  _266
REMARK  118  A    between atoms: _266  and  _267
REMARK  119  A    between atoms: _270  and  _272
REMARK  120  A    between atoms: _272  and  _273
REMARK  121  A    between atoms: _272  and  _275
REMARK  122  A    between atoms: _275  and  _276
REMARK  123  A    between atoms: _279  and  _281
REMARK  124  A    between atoms: _281  and  _282
REMARK  125  A    between atoms: _285  and  _287
REMARK  126  A    between atoms: _287  and  _288
REMARK  127  A    between atoms: _287  and  _290
REMARK  128  A    between atoms: _290  and  _291
REMARK  129  A    between atoms: _291  and  _292
REMARK  130  A    between atoms: _292  and  _293
REMARK  131  A    between atoms: _293  and  _294
REMARK  132  A    between atoms: _298  and  _300
REMARK  133  A    between atoms: _300  and  _301
REMARK  134  A    between atoms: _300  and  _303
REMARK  135  A    between atoms: _303  and  _304
REMARK  136  A    between atoms: _306  and  _308
REMARK  137  A    between atoms: _308  and  _309
REMARK  138  A    between atoms: _311  and  _313
REMARK  139  A    between atoms: _313  and  _314
REMARK  140  A    between atoms: _313  and  _316
REMARK  141  A    between atoms: _316  and  _317
REMARK  142  A    between atoms: _323  and  _325
REMARK  143  A    between atoms: _325  and  _326
REMARK  144  A    between atoms: _328  and  _330
REMARK  145  A    between atoms: _330  and  _331
REMARK  146  A    between atoms: _330  and  _333
REMARK  147  A    between atoms: _336  and  _338
REMARK  148  A    between atoms: _338  and  _339
REMARK  149  A    between atoms: _341  and  _343
REMARK  150  A    between atoms: _343  and  _344
REMARK  151  A    between atoms: _343  and  _346
REMARK  152  A    between atoms: _346  and  _347
REMARK  153  A    between atoms: _353  and  _355
REMARK  154  A    between atoms: _355  and  _356
REMARK  155  A    between atoms: _355  and  _358
REMARK  156  A    between atoms: _358  and  _359
REMARK  157  A    between atoms: _364  and  _365
REMARK  158  A    between atoms: _367  and  _369
REMARK  159  A    between atoms: _369  and  _370
REMARK  160  A    between atoms: _373  and  _375
REMARK  161  A    between atoms: _375  and  _376
REMARK  162  A    between atoms: _375  and  _378
REMARK  163  A    between atoms: _378  and  _379
REMARK  164  A    between atoms: _384  and  _385
REMARK  165  A    between atoms: _387  and  _389
REMARK  166  A    between atoms: _389  and  _390
REMARK  167  A    between atoms: _389  and  _392
REMARK  168  A    between atoms: _395  and  _397
REMARK  169  A    between atoms: _397  and  _398
REMARK  170  A    between atoms: _397  and  _400
REMARK  171  A    between atoms: _400  and  _401
REMARK  172  A    between atoms: _404  and  _406
REMARK  173  A    between atoms: _406  and  _407
REMARK  174  A    between atoms: _406  and  _409
REMARK  175  A    between atoms: _412  and  _414
REMARK  176  A    between atoms: _414  and  _415
REMARK  177  A    between atoms: _414  and  _417
REMARK  178  A    between atoms: _417  and  _418
REMARK  179  A    between atoms: _421  and  _423
REMARK  180  A    between atoms: _423  and  _424
REMARK  181  A    between atoms: _423  and  _426
REMARK  182  A    between atoms: _426  and  _427
REMARK  183  A    between atoms: _430  and  _432
REMARK  184  A    between atoms: _432  and  _433
REMARK  185  A    between atoms: _432  and  _435
REMARK  186  A    between atoms: _435  and  _436
REMARK  187  A    between atoms: _436  and  _437
REMARK  188  A    between atoms: _437  and  _438
REMARK  189  A    between atoms: _438  and  _439
REMARK  190  A    between atoms: _443  and  _445
REMARK  191  A    between atoms: _445  and  _446
REMARK  192  A    between atoms: _445  and  _448
REMARK  193  A    between atoms: _448  and  _449
REMARK  194  A    between atoms: _454  and  _456
REMARK  195  A    between atoms: _456  and  _457
REMARK  196  A    between atoms: _456  and  _459
REMARK  197  A    between atoms: _459  and  _460
REMARK  198  A    between atoms: _470  and  _472
REMARK  199  A    between atoms: _472  and  _473
REMARK  200  A    between atoms: _472  and  _475
REMARK  201  A    between atoms: _475  and  _476
REMARK  202  A    between atoms: _476  and  _477
REMARK  203  A    between atoms: _479  and  _481
REMARK  204  A    between atoms: _481  and  _482
REMARK  205  A    between atoms: _481  and  _484
REMARK  206  A    between atoms: _484  and  _485
REMARK  207  A    between atoms: _485  and  _486
REMARK  208  A    between atoms: _486  and  _487
REMARK  209  A    between atoms: _496  and  _498
REMARK  210  A    between atoms: _498  and  _499
REMARK  211  A    between atoms: _501  and  _503
REMARK  212  A    between atoms: _503  and  _504
REMARK  213  A    between atoms: _503  and  _506
REMARK  214  A    between atoms: _506  and  _507
REMARK  215  A    between atoms: _510  and  _512
REMARK  216  A    between atoms: _512  and  _513
REMARK  217  A    between atoms: _512  and  _515
REMARK  218  A    between atoms: _515  and  _516
REMARK  219  A    between atoms: _516  and  _517
REMARK  220  A    between atoms: _517  and  _518
REMARK  221  A    between atoms: _518  and  _519
REMARK  222  A    between atoms: _523  and  _525
REMARK  223  A    between atoms: _525  and  _526
REMARK  224  A    between atoms: _525  and  _528
REMARK  225  A    between atoms: _531  and  _533
REMARK  226  A    between atoms: _533  and  _534
REMARK  227  A    between atoms: _533  and  _536
REMARK  228  A    between atoms: _536  and  _537
REMARK  229  A    between atoms: _540  and  _542
REMARK  230  A    between atoms: _542  and  _543
REMARK  231  A    between atoms: _542  and  _545
REMARK  232  A    between atoms: _545  and  _546
REMARK                            x       y       z     vdW  Elec       q    Type
REMARK                         _______ _______ _______ _____ _____    ______ ____
ROOT
ATOM      1  O   HOH     1       9.843  35.417  -0.097  0.00  0.00    +0.000 OA
ENDROOT
TORSDOF 0
REMARK  Name = ../refined-set-2016/1yc1/1yc1_pocket.pdb
REMARK  232 active torsions:
REMARK  status: ('A' for Active; 'I' for Inactive)
REMARK    1  A    between atoms: _1  and  _3
REMARK    2  A    between atoms: _3  and  _4
REMARK    3  A    between atoms: _3  and  _6
REMARK    4  A    between atoms: _6  and  _7
REMARK    5  A    between atoms: _13  and  _15
REMARK    6  A    between atoms: _15  and  _16
REMARK    7  A    between atoms: _15  and  _18
REMARK    8  A    between atoms: _18  and  _19
REMARK    9  A    between atoms: _19  and  _20
REMARK   10  A    between atoms: _23  and  _25
REMARK   11  A    between atoms: _25  and  _26
REMARK   12  A    between atoms: _25  and  _28
REMARK   13  A    between atoms: _28  and  _29
REMARK   14  A    between atoms: _32  and  _34
REMARK   15  A    between atoms: _34  and  _35
REMARK   16  A    between atoms: _34  and  _37
REMARK   17  A    between atoms: _37  and  _38
REMARK   18  A    between atoms: _41  and  _43
REMARK   19  A    between atoms: _43  and  _44
REMARK   20  A    between atoms: _43  and  _46
REMARK   21  A    between atoms: _46  and  _47
REMARK   22  A    between atoms: _49  and  _51
REMARK   23  A    between atoms: _51  and  _52
REMARK   24  A    between atoms: _51  and  _54
REMARK   25  A    between atoms: _54  and  _55
REMARK   26  A    between atoms: _60  and  _62
REMARK   27  A    between atoms: _62  and  _63
REMARK   28  A    between atoms: _62  and  _65
REMARK   29  A    between atoms: _65  and  _66
REMARK   30  A    between atoms: _68  and  _70
REMARK   31  A    between atoms: _70  and  _71
REMARK   32  A    between atoms: _70  and  _73
REMARK   33  A    between atoms: _73  and  _74
REMARK   34  A    between atoms: _76  and  _78
REMARK   35  A    between atoms: _78  and  _79
REMARK   36  A    between atoms: _78  and  _81
REMARK   37  A    between atoms: _81  and  _82
REMARK   38  A    between atoms: _85  and  _87
REMARK   39  A    between atoms: _87  and  _88
REMARK   40  A    between atoms: _91  and  _93
REMARK   41  A    between atoms: _93  and  _94
REMARK   42  A    between atoms: _93  and  _96
REMARK   43  A    between atoms: _96  and  _97
REMARK   44  A    between atoms: _100  and  _102
REMARK   45  A    between atoms: _102  and  _103
REMARK   46  A    between atoms: _102  and  _105
REMARK   47  A    between atoms: _105  and  _106
REMARK   48  A    between atoms: _109  and  _111
REMARK   49  A    between atoms: _111  and  _112
REMARK   50  A    between atoms: _111  and  _114
REMARK   51  A    between atoms: _114  and  _115
REMARK   52  A    between atoms: _115  and  _116
REMARK   53  A    between atoms: _116  and  _117
REMARK   54  A    between atoms: _117  and  _118
REMARK   55  A    between atoms: _122  and  _124
REMARK   56  A    between atoms: _124  and  _125
REMARK   57  A    between atoms: _124  and  _127
REMARK   58  A    between atoms: _127  and  _128
REMARK   59  A    between atoms: _131  and  _133
REMARK   60  A    between atoms: _133  and  _134
REMARK   61  A    between atoms: _133  and  _136
REMARK   62  A    between atoms: _136  and  _137
REMARK   63  A    between atoms: _140  and  _142
REMARK   64  A    between atoms: _142  and  _143
REMARK   65  A    between atoms: _142  and  _145
REMARK   66  A    between atoms: _145  and  _146
REMARK   67  A    between atoms: _149  and  _151
REMARK   68  A    between atoms: _151  and  _152
REMARK   69  A    between atoms: _151  and  _154
REMARK   70  A    between atoms: _157  and  _159
REMARK   71  A    between atoms: _159  and  _160
REMARK   72  A    between atoms: _159  and  _162
REMARK   73  A    between atoms: _162  and  _163
REMARK   74  A    between atoms: _166  and  _168
REMARK   75  A    between atoms: _168  and  _169
REMARK   76  A    between atoms: _168  and  _171
REMARK   77  A    between atoms: _171  and  _172
REMARK   78  A    between atoms: _175  and  _177
REMARK   79  A    between atoms: _177  and  _178
REMARK   80  A    between atoms: _180  and  _182
REMARK   81  A    between atoms: _182  and  _183
REMARK   82  A    between atoms: _182  and  _185
REMARK   83  A    between atoms: _185  and  _186
REMARK   84  A    between atoms: _189  and  _191
REMARK   85  A    between atoms: _191  and  _192
REMARK   86  A    between atoms: _194  and  _196
REMARK   87  A    between atoms: _196  and  _197
REMARK   88  A    between atoms: _196  and  _199
REMARK   89  A    between atoms: _199  and  _200
REMARK   90  A    between atoms: _200  and  _201
REMARK   91  A    between atoms: _203  and  _205
REMARK   92  A    between atoms: _205  and  _206
REMARK   93  A    between atoms: _205  and  _208
REMARK   94  A    between atoms: _208  and  _209
REMARK   95  A    between atoms: _212  and  _214
REMARK   96  A    between atoms: _214  and  _215
REMARK   97  A    between atoms: _214  and  _217
REMARK   98  A    between atoms: _217  and  _218
REMARK   99  A    between atoms: _221  and  _223
REMARK  100  A    between atoms: _223  and  _224
REMARK  101  A    between atoms: _223  and  _226
REMARK  102  A    between atoms: _226  and  _227
REMARK  103  A    between atoms: _230  and  _232
REMARK  104  A    between atoms: _232  and  _233
REMARK  105  A    between atoms: _232  and  _235
REMARK  106  A    between atoms: _235  and  _236
REMARK  107  A    between atoms: _241  and  _243
REMARK  108  A    between atoms: _243  and  _244
REMARK  109  A    between atoms: _243  and  _246
REMARK  110  A    between atoms: _246  and  _247
REMARK  111  A    between atoms: _252  and  _254
REMARK  112  A    between atoms: _254  and  _255
REMARK  113  A    between atoms: _254  and  _257
REMARK  114  A    between atoms: _257  and  _258
REMARK  115  A    between atoms: _261  and  _263
REMARK  116  A    between atoms: _263  and  _264
REMARK  117  A    between atoms: _263  and  _266
REMARK  118  A    between atoms: _266  and  _267
REMARK  119  A    between atoms: _270  and  _272
REMARK  120  A    between atoms: _272  and  _273
REMARK  121  A    between atoms: _272  and  _275
REMARK  122  A    between atoms: _275  and  _276
REMARK  123  A    between atoms: _279  and  _281
REMARK  124  A    between atoms: _281  and  _282
REMARK  125  A    between atoms: _285  and  _287
REMARK  126  A    between atoms: _287  and  _288
REMARK  127  A    between atoms: _287  and  _290
REMARK  128  A    between atoms: _290  and  _291
REMARK  129  A    between atoms: _291  and  _292
REMARK  130  A    between atoms: _292  and  _293
REMARK  131  A    between atoms: _293  and  _294
REMARK  132  A    between atoms: _298  and  _300
REMARK  133  A    between atoms: _300  and  _301
REMARK  134  A    between atoms: _300  and  _303
REMARK  135  A    between atoms: _303  and  _304
REMARK  136  A    between atoms: _306  and  _308
REMARK  137  A    between atoms: _308  and  _309
REMARK  138  A    between atoms: _311  and  _313
REMARK  139  A    between atoms: _313  and  _314
REMARK  140  A    between atoms: _313  and  _316
REMARK  141  A    between atoms: _316  and  _317
REMARK  142  A    between atoms: _323  and  _325
REMARK  143  A    between atoms: _325  and  _326
REMARK  144  A    between atoms: _328  and  _330
REMARK  145  A    between atoms: _330  and  _331
REMARK  146  A    between atoms: _330  and  _333
REMARK  147  A    between atoms: _336  and  _338
REMARK  148  A    between atoms: _338  and  _339
REMARK  149  A    between atoms: _341  and  _343
REMARK  150  A    between atoms: _343  and  _344
REMARK  151  A    between atoms: _343  and  _346
REMARK  152  A    between atoms: _346  and  _347
REMARK  153  A    between atoms: _353  and  _355
REMARK  154  A    between atoms: _355  and  _356
REMARK  155  A    between atoms: _355  and  _358
REMARK  156  A    between atoms: _358  and  _359
REMARK  157  A    between atoms: _364  and  _365
REMARK  158  A    between atoms: _367  and  _369
REMARK  159  A    between atoms: _369  and  _370
REMARK  160  A    between atoms: _373  and  _375
REMARK  161  A    between atoms: _375  and  _376
REMARK  162  A    between atoms: _375  and  _378
REMARK  163  A    between atoms: _378  and  _379
REMARK  164  A    between atoms: _384  and  _385
REMARK  165  A    between atoms: _387  and  _389
REMARK  166  A    between atoms: _389  and  _390
REMARK  167  A    between atoms: _389  and  _392
REMARK  168  A    between atoms: _395  and  _397
REMARK  169  A    between atoms: _397  and  _398
REMARK  170  A    between atoms: _397  and  _400
REMARK  171  A    between atoms: _400  and  _401
REMARK  172  A    between atoms: _404  and  _406
REMARK  173  A    between atoms: _406  and  _407
REMARK  174  A    between atoms: _406  and  _409
REMARK  175  A    between atoms: _412  and  _414
REMARK  176  A    between atoms: _414  and  _415
REMARK  177  A    between atoms: _414  and  _417
REMARK  178  A    between atoms: _417  and  _418
REMARK  179  A    between atoms: _421  and  _423
REMARK  180  A    between atoms: _423  and  _424
REMARK  181  A    between atoms: _423  and  _426
REMARK  182  A    between atoms: _426  and  _427
REMARK  183  A    between atoms: _430  and  _432
REMARK  184  A    between atoms: _432  and  _433
REMARK  185  A    between atoms: _432  and  _435
REMARK  186  A    between atoms: _435  and  _436
REMARK  187  A    between atoms: _436  and  _437
REMARK  188  A    between atoms: _437  and  _438
REMARK  189  A    between atoms: _438  and  _439
REMARK  190  A    between atoms: _443  and  _445
REMARK  191  A    between atoms: _445  and  _446
REMARK  192  A    between atoms: _445  and  _448
REMARK  193  A    between atoms: _448  and  _449
REMARK  194  A    between atoms: _454  and  _456
REMARK  195  A    between atoms: _456  and  _457
REMARK  196  A    between atoms: _456  and  _459
REMARK  197  A    between atoms: _459  and  _460
REMARK  198  A    between atoms: _470  and  _472
REMARK  199  A    between atoms: _472  and  _473
REMARK  200  A    between atoms: _472  and  _475
REMARK  201  A    between atoms: _475  and  _476
REMARK  202  A    between atoms: _476  and  _477
REMARK  203  A    between atoms: _479  and  _481
REMARK  204  A    between atoms: _481  and  _482
REMARK  205  A    between atoms: _481  and  _484
REMARK  206  A    between atoms: _484  and  _485
REMARK  207  A    between atoms: _485  and  _486
REMARK  208  A    between atoms: _486  and  _487
REMARK  209  A    between atoms: _496  and  _498
REMARK  210  A    between atoms: _498  and  _499
REMARK  211  A    between atoms: _501  and  _503
REMARK  212  A    between atoms: _503  and  _504
REMARK  213  A    between atoms: _503  and  _506
REMARK  214  A    between atoms: _506  and  _507
REMARK  215  A    between atoms: _510  and  _512
REMARK  216  A    between atoms: _512  and  _513
REMARK  217  A    between atoms: _512  and  _515
REMARK  218  A    between atoms: _515  and  _516
REMARK  219  A    between atoms: _516  and  _517
REMARK  220  A    between atoms: _517  and  _518
REMARK  221  A    between atoms: _518  and  _519
REMARK  222  A    between atoms: _523  and  _525
REMARK  223  A    between atoms: _525  and  _526
REMARK  224  A    between atoms: _525  and  _528
REMARK  225  A    between atoms: _531  and  _533
REMARK  226  A    between atoms: _533  and  _534
REMARK  227  A    between atoms: _533  and  _536
REMARK  228  A    between atoms: _536  and  _537
REMARK  229  A    between atoms: _540  and  _542
REMARK  230  A    between atoms: _542  and  _543
REMARK  231  A    between atoms: _542  and  _545
REMARK  232  A    between atoms: _545  and  _546
REMARK                            x       y       z     vdW  Elec       q    Type
REMARK                         _______ _______ _______ _____ _____    ______ ____
ROOT
ATOM      1  O   HOH     1       0.786  38.004   3.837  0.00  0.00    +0.000 OA
ENDROOT
TORSDOF 0
REMARK  Name = ../refined-set-2016/1yc1/1yc1_pocket.pdb
REMARK  232 active torsions:
REMARK  status: ('A' for Active; 'I' for Inactive)
REMARK    1  A    between atoms: _1  and  _3
REMARK    2  A    between atoms: _3  and  _4
REMARK    3  A    between atoms: _3  and  _6
REMARK    4  A    between atoms: _6  and  _7
REMARK    5  A    between atoms: _13  and  _15
REMARK    6  A    between atoms: _15  and  _16
REMARK    7  A    between atoms: _15  and  _18
REMARK    8  A    between atoms: _18  and  _19
REMARK    9  A    between atoms: _19  and  _20
REMARK   10  A    between atoms: _23  and  _25
REMARK   11  A    between atoms: _25  and  _26
REMARK   12  A    between atoms: _25  and  _28
REMARK   13  A    between atoms: _28  and  _29
REMARK   14  A    between atoms: _32  and  _34
REMARK   15  A    between atoms: _34  and  _35
REMARK   16  A    between atoms: _34  and  _37
REMARK   17  A    between atoms: _37  and  _38
REMARK   18  A    between atoms: _41  and  _43
REMARK   19  A    between atoms: _43  and  _44
REMARK   20  A    between atoms: _43  and  _46
REMARK   21  A    between atoms: _46  and  _47
REMARK   22  A    between atoms: _49  and  _51
REMARK   23  A    between atoms: _51  and  _52
REMARK   24  A    between atoms: _51  and  _54
REMARK   25  A    between atoms: _54  and  _55
REMARK   26  A    between atoms: _60  and  _62
REMARK   27  A    between atoms: _62  and  _63
REMARK   28  A    between atoms: _62  and  _65
REMARK   29  A    between atoms: _65  and  _66
REMARK   30  A    between atoms: _68  and  _70
REMARK   31  A    between atoms: _70  and  _71
REMARK   32  A    between atoms: _70  and  _73
REMARK   33  A    between atoms: _73  and  _74
REMARK   34  A    between atoms: _76  and  _78
REMARK   35  A    between atoms: _78  and  _79
REMARK   36  A    between atoms: _78  and  _81
REMARK   37  A    between atoms: _81  and  _82
REMARK   38  A    between atoms: _85  and  _87
REMARK   39  A    between atoms: _87  and  _88
REMARK   40  A    between atoms: _91  and  _93
REMARK   41  A    between atoms: _93  and  _94
REMARK   42  A    between atoms: _93  and  _96
REMARK   43  A    between atoms: _96  and  _97
REMARK   44  A    between atoms: _100  and  _102
REMARK   45  A    between atoms: _102  and  _103
REMARK   46  A    between atoms: _102  and  _105
REMARK   47  A    between atoms: _105  and  _106
REMARK   48  A    between atoms: _109  and  _111
REMARK   49  A    between atoms: _111  and  _112
REMARK   50  A    between atoms: _111  and  _114
REMARK   51  A    between atoms: _114  and  _115
REMARK   52  A    between atoms: _115  and  _116
REMARK   53  A    between atoms: _116  and  _117
REMARK   54  A    between atoms: _117  and  _118
REMARK   55  A    between atoms: _122  and  _124
REMARK   56  A    between atoms: _124  and  _125
REMARK   57  A    between atoms: _124  and  _127
REMARK   58  A    between atoms: _127  and  _128
REMARK   59  A    between atoms: _131  and  _133
REMARK   60  A    between atoms: _133  and  _134
REMARK   61  A    between atoms: _133  and  _136
REMARK   62  A    between atoms: _136  and  _137
REMARK   63  A    between atoms: _140  and  _142
REMARK   64  A    between atoms: _142  and  _143
REMARK   65  A    between atoms: _142  and  _145
REMARK   66  A    between atoms: _145  and  _146
REMARK   67  A    between atoms: _149  and  _151
REMARK   68  A    between atoms: _151  and  _152
REMARK   69  A    between atoms: _151  and  _154
REMARK   70  A    between atoms: _157  and  _159
REMARK   71  A    between atoms: _159  and  _160
REMARK   72  A    between atoms: _159  and  _162
REMARK   73  A    between atoms: _162  and  _163
REMARK   74  A    between atoms: _166  and  _168
REMARK   75  A    between atoms: _168  and  _169
REMARK   76  A    between atoms: _168  and  _171
REMARK   77  A    between atoms: _171  and  _172
REMARK   78  A    between atoms: _175  and  _177
REMARK   79  A    between atoms: _177  and  _178
REMARK   80  A    between atoms: _180  and  _182
REMARK   81  A    between atoms: _182  and  _183
REMARK   82  A    between atoms: _182  and  _185
REMARK   83  A    between atoms: _185  and  _186
REMARK   84  A    between atoms: _189  and  _191
REMARK   85  A    between atoms: _191  and  _192
REMARK   86  A    between atoms: _194  and  _196
REMARK   87  A    between atoms: _196  and  _197
REMARK   88  A    between atoms: _196  and  _199
REMARK   89  A    between atoms: _199  and  _200
REMARK   90  A    between atoms: _200  and  _201
REMARK   91  A    between atoms: _203  and  _205
REMARK   92  A    between atoms: _205  and  _206
REMARK   93  A    between atoms: _205  and  _208
REMARK   94  A    between atoms: _208  and  _209
REMARK   95  A    between atoms: _212  and  _214
REMARK   96  A    between atoms: _214  and  _215
REMARK   97  A    between atoms: _214  and  _217
REMARK   98  A    between atoms: _217  and  _218
REMARK   99  A    between atoms: _221  and  _223
REMARK  100  A    between atoms: _223  and  _224
REMARK  101  A    between atoms: _223  and  _226
REMARK  102  A    between atoms: _226  and  _227
REMARK  103  A    between atoms: _230  and  _232
REMARK  104  A    between atoms: _232  and  _233
REMARK  105  A    between atoms: _232  and  _235
REMARK  106  A    between atoms: _235  and  _236
REMARK  107  A    between atoms: _241  and  _243
REMARK  108  A    between atoms: _243  and  _244
REMARK  109  A    between atoms: _243  and  _246
REMARK  110  A    between atoms: _246  and  _247
REMARK  111  A    between atoms: _252  and  _254
REMARK  112  A    between atoms: _254  and  _255
REMARK  113  A    between atoms: _254  and  _257
REMARK  114  A    between atoms: _257  and  _258
REMARK  115  A    between atoms: _261  and  _263
REMARK  116  A    between atoms: _263  and  _264
REMARK  117  A    between atoms: _263  and  _266
REMARK  118  A    between atoms: _266  and  _267
REMARK  119  A    between atoms: _270  and  _272
REMARK  120  A    between atoms: _272  and  _273
REMARK  121  A    between atoms: _272  and  _275
REMARK  122  A    between atoms: _275  and  _276
REMARK  123  A    between atoms: _279  and  _281
REMARK  124  A    between atoms: _281  and  _282
REMARK  125  A    between atoms: _285  and  _287
REMARK  126  A    between atoms: _287  and  _288
REMARK  127  A    between atoms: _287  and  _290
REMARK  128  A    between atoms: _290  and  _291
REMARK  129  A    between atoms: _291  and  _292
REMARK  130  A    between atoms: _292  and  _293
REMARK  131  A    between atoms: _293  and  _294
REMARK  132  A    between atoms: _298  and  _300
REMARK  133  A    between atoms: _300  and  _301
REMARK  134  A    between atoms: _300  and  _303
REMARK  135  A    between atoms: _303  and  _304
REMARK  136  A    between atoms: _306  and  _308
REMARK  137  A    between atoms: _308  and  _309
REMARK  138  A    between atoms: _311  and  _313
REMARK  139  A    between atoms: _313  and  _314
REMARK  140  A    between atoms: _313  and  _316
REMARK  141  A    between atoms: _316  and  _317
REMARK  142  A    between atoms: _323  and  _325
REMARK  143  A    between atoms: _325  and  _326
REMARK  144  A    between atoms: _328  and  _330
REMARK  145  A    between atoms: _330  and  _331
REMARK  146  A    between atoms: _330  and  _333
REMARK  147  A    between atoms: _336  and  _338
REMARK  148  A    between atoms: _338  and  _339
REMARK  149  A    between atoms: _341  and  _343
REMARK  150  A    between atoms: _343  and  _344
REMARK  151  A    between atoms: _343  and  _346
REMARK  152  A    between atoms: _346  and  _347
REMARK  153  A    between atoms: _353  and  _355
REMARK  154  A    between atoms: _355  and  _356
REMARK  155  A    between atoms: _355  and  _358
REMARK  156  A    between atoms: _358  and  _359
REMARK  157  A    between atoms: _364  and  _365
REMARK  158  A    between atoms: _367  and  _369
REMARK  159  A    between atoms: _369  and  _370
REMARK  160  A    between atoms: _373  and  _375
REMARK  161  A    between atoms: _375  and  _376
REMARK  162  A    between atoms: _375  and  _378
REMARK  163  A    between atoms: _378  and  _379
REMARK  164  A    between atoms: _384  and  _385
REMARK  165  A    between atoms: _387  and  _389
REMARK  166  A    between atoms: _389  and  _390
REMARK  167  A    between atoms: _389  and  _392
REMARK  168  A    between atoms: _395  and  _397
REMARK  169  A    between atoms: _397  and  _398
REMARK  170  A    between atoms: _397  and  _400
REMARK  171  A    between atoms: _400  and  _401
REMARK  172  A    between atoms: _404  and  _406
REMARK  173  A    between atoms: _406  and  _407
REMARK  174  A    between atoms: _406  and  _409
REMARK  175  A    between atoms: _412  and  _414
REMARK  176  A    between atoms: _414  and  _415
REMARK  177  A    between atoms: _414  and  _417
REMARK  178  A    between atoms: _417  and  _418
REMARK  179  A    between atoms: _421  and  _423
REMARK  180  A    between atoms: _423  and  _424
REMARK  181  A    between atoms: _423  and  _426
REMARK  182  A    between atoms: _426  and  _427
REMARK  183  A    between atoms: _430  and  _432
REMARK  184  A    between atoms: _432  and  _433
REMARK  185  A    between atoms: _432  and  _435
REMARK  186  A    between atoms: _435  and  _436
REMARK  187  A    between atoms: _436  and  _437
REMARK  188  A    between atoms: _437  and  _438
REMARK  189  A    between atoms: _438  and  _439
REMARK  190  A    between atoms: _443  and  _445
REMARK  191  A    between atoms: _445  and  _446
REMARK  192  A    between atoms: _445  and  _448
REMARK  193  A    between atoms: _448  and  _449
REMARK  194  A    between atoms: _454  and  _456
REMARK  195  A    between atoms: _456  and  _457
REMARK  196  A    between atoms: _456  and  _459
REMARK  197  A    between atoms: _459  and  _460
REMARK  198  A    between atoms: _470  and  _472
REMARK  199  A    between atoms: _472  and  _473
REMARK  200  A    between atoms: _472  and  _475
REMARK  201  A    between atoms: _475  and  _476
REMARK  202  A    between atoms: _476  and  _477
REMARK  203  A    between atoms: _479  and  _481
REMARK  204  A    between atoms: _481  and  _482
REMARK  205  A    between atoms: _481  and  _484
REMARK  206  A    between atoms: _484  and  _485
REMARK  207  A    between atoms: _485  and  _486
REMARK  208  A    between atoms: _486  and  _487
REMARK  209  A    between atoms: _496  and  _498
REMARK  210  A    between atoms: _498  and  _499
REMARK  211  A    between atoms: _501  and  _503
REMARK  212  A    between atoms: _503  and  _504
REMARK  213  A    between atoms: _503  and  _506
REMARK  214  A    between atoms: _506  and  _507
REMARK  215  A    between atoms: _510  and  _512
REMARK  216  A    between atoms: _512  and  _513
REMARK  217  A    between atoms: _512  and  _515
REMARK  218  A    between atoms: _515  and  _516
REMARK  219  A    between atoms: _516  and  _517
REMARK  220  A    between atoms: _517  and  _518
REMARK  221  A    between atoms: _518  and  _519
REMARK  222  A    between atoms: _523  and  _525
REMARK  223  A    between atoms: _525  and  _526
REMARK  224  A    between atoms: _525  and  _528
REMARK  225  A    between atoms: _531  and  _533
REMARK  226  A    between atoms: _533  and  _534
REMARK  227  A    between atoms: _533  and  _536
REMARK  228  A    between atoms: _536  and  _537
REMARK  229  A    between atoms: _540  and  _542
REMARK  230  A    between atoms: _542  and  _543
REMARK  231  A    between atoms: _542  and  _545
REMARK  232  A    between atoms: _545  and  _546
REMARK                            x       y       z     vdW  Elec       q    Type
REMARK                         _______ _______ _______ _____ _____    ______ ____
ROOT
ATOM      1  O   HOH     1      -4.108  32.222 -13.997  0.00  0.00    +0.000 OA
ENDROOT
TORSDOF 0
REMARK  Name = ../refined-set-2016/1yc1/1yc1_pocket.pdb
REMARK  232 active torsions:
REMARK  status: ('A' for Active; 'I' for Inactive)
REMARK    1  A    between atoms: _1  and  _3
REMARK    2  A    between atoms: _3  and  _4
REMARK    3  A    between atoms: _3  and  _6
REMARK    4  A    between atoms: _6  and  _7
REMARK    5  A    between atoms: _13  and  _15
REMARK    6  A    between atoms: _15  and  _16
REMARK    7  A    between atoms: _15  and  _18
REMARK    8  A    between atoms: _18  and  _19
REMARK    9  A    between atoms: _19  and  _20
REMARK   10  A    between atoms: _23  and  _25
REMARK   11  A    between atoms: _25  and  _26
REMARK   12  A    between atoms: _25  and  _28
REMARK   13  A    between atoms: _28  and  _29
REMARK   14  A    between atoms: _32  and  _34
REMARK   15  A    between atoms: _34  and  _35
REMARK   16  A    between atoms: _34  and  _37
REMARK   17  A    between atoms: _37  and  _38
REMARK   18  A    between atoms: _41  and  _43
REMARK   19  A    between atoms: _43  and  _44
REMARK   20  A    between atoms: _43  and  _46
REMARK   21  A    between atoms: _46  and  _47
REMARK   22  A    between atoms: _49  and  _51
REMARK   23  A    between atoms: _51  and  _52
REMARK   24  A    between atoms: _51  and  _54
REMARK   25  A    between atoms: _54  and  _55
REMARK   26  A    between atoms: _60  and  _62
REMARK   27  A    between atoms: _62  and  _63
REMARK   28  A    between atoms: _62  and  _65
REMARK   29  A    between atoms: _65  and  _66
REMARK   30  A    between atoms: _68  and  _70
REMARK   31  A    between atoms: _70  and  _71
REMARK   32  A    between atoms: _70  and  _73
REMARK   33  A    between atoms: _73  and  _74
REMARK   34  A    between atoms: _76  and  _78
REMARK   35  A    between atoms: _78  and  _79
REMARK   36  A    between atoms: _78  and  _81
REMARK   37  A    between atoms: _81  and  _82
REMARK   38  A    between atoms: _85  and  _87
REMARK   39  A    between atoms: _87  and  _88
REMARK   40  A    between atoms: _91  and  _93
REMARK   41  A    between atoms: _93  and  _94
REMARK   42  A    between atoms: _93  and  _96
REMARK   43  A    between atoms: _96  and  _97
REMARK   44  A    between atoms: _100  and  _102
REMARK   45  A    between atoms: _102  and  _103
REMARK   46  A    between atoms: _102  and  _105
REMARK   47  A    between atoms: _105  and  _106
REMARK   48  A    between atoms: _109  and  _111
REMARK   49  A    between atoms: _111  and  _112
REMARK   50  A    between atoms: _111  and  _114
REMARK   51  A    between atoms: _114  and  _115
REMARK   52  A    between atoms: _115  and  _116
REMARK   53  A    between atoms: _116  and  _117
REMARK   54  A    between atoms: _117  and  _118
REMARK   55  A    between atoms: _122  and  _124
REMARK   56  A    between atoms: _124  and  _125
REMARK   57  A    between atoms: _124  and  _127
REMARK   58  A    between atoms: _127  and  _128
REMARK   59  A    between atoms: _131  and  _133
REMARK   60  A    between atoms: _133  and  _134
REMARK   61  A    between atoms: _133  and  _136
REMARK   62  A    between atoms: _136  and  _137
REMARK   63  A    between atoms: _140  and  _142
REMARK   64  A    between atoms: _142  and  _143
REMARK   65  A    between atoms: _142  and  _145
REMARK   66  A    between atoms: _145  and  _146
REMARK   67  A    between atoms: _149  and  _151
REMARK   68  A    between atoms: _151  and  _152
REMARK   69  A    between atoms: _151  and  _154
REMARK   70  A    between atoms: _157  and  _159
REMARK   71  A    between atoms: _159  and  _160
REMARK   72  A    between atoms: _159  and  _162
REMARK   73  A    between atoms: _162  and  _163
REMARK   74  A    between atoms: _166  and  _168
REMARK   75  A    between atoms: _168  and  _169
REMARK   76  A    between atoms: _168  and  _171
REMARK   77  A    between atoms: _171  and  _172
REMARK   78  A    between atoms: _175  and  _177
REMARK   79  A    between atoms: _177  and  _178
REMARK   80  A    between atoms: _180  and  _182
REMARK   81  A    between atoms: _182  and  _183
REMARK   82  A    between atoms: _182  and  _185
REMARK   83  A    between atoms: _185  and  _186
REMARK   84  A    between atoms: _189  and  _191
REMARK   85  A    between atoms: _191  and  _192
REMARK   86  A    between atoms: _194  and  _196
REMARK   87  A    between atoms: _196  and  _197
REMARK   88  A    between atoms: _196  and  _199
REMARK   89  A    between atoms: _199  and  _200
REMARK   90  A    between atoms: _200  and  _201
REMARK   91  A    between atoms: _203  and  _205
REMARK   92  A    between atoms: _205  and  _206
REMARK   93  A    between atoms: _205  and  _208
REMARK   94  A    between atoms: _208  and  _209
REMARK   95  A    between atoms: _212  and  _214
REMARK   96  A    between atoms: _214  and  _215
REMARK   97  A    between atoms: _214  and  _217
REMARK   98  A    between atoms: _217  and  _218
REMARK   99  A    between atoms: _221  and  _223
REMARK  100  A    between atoms: _223  and  _224
REMARK  101  A    between atoms: _223  and  _226
REMARK  102  A    between atoms: _226  and  _227
REMARK  103  A    between atoms: _230  and  _232
REMARK  104  A    between atoms: _232  and  _233
REMARK  105  A    between atoms: _232  and  _235
REMARK  106  A    between atoms: _235  and  _236
REMARK  107  A    between atoms: _241  and  _243
REMARK  108  A    between atoms: _243  and  _244
REMARK  109  A    between atoms: _243  and  _246
REMARK  110  A    between atoms: _246  and  _247
REMARK  111  A    between atoms: _252  and  _254
REMARK  112  A    between atoms: _254  and  _255
REMARK  113  A    between atoms: _254  and  _257
REMARK  114  A    between atoms: _257  and  _258
REMARK  115  A    between atoms: _261  and  _263
REMARK  116  A    between atoms: _263  and  _264
REMARK  117  A    between atoms: _263  and  _266
REMARK  118  A    between atoms: _266  and  _267
REMARK  119  A    between atoms: _270  and  _272
REMARK  120  A    between atoms: _272  and  _273
REMARK  121  A    between atoms: _272  and  _275
REMARK  122  A    between atoms: _275  and  _276
REMARK  123  A    between atoms: _279  and  _281
REMARK  124  A    between atoms: _281  and  _282
REMARK  125  A    between atoms: _285  and  _287
REMARK  126  A    between atoms: _287  and  _288
REMARK  127  A    between atoms: _287  and  _290
REMARK  128  A    between atoms: _290  and  _291
REMARK  129  A    between atoms: _291  and  _292
REMARK  130  A    between atoms: _292  and  _293
REMARK  131  A    between atoms: _293  and  _294
REMARK  132  A    between atoms: _298  and  _300
REMARK  133  A    between atoms: _300  and  _301
REMARK  134  A    between atoms: _300  and  _303
REMARK  135  A    between atoms: _303  and  _304
REMARK  136  A    between atoms: _306  and  _308
REMARK  137  A    between atoms: _308  and  _309
REMARK  138  A    between atoms: _311  and  _313
REMARK  139  A    between atoms: _313  and  _314
REMARK  140  A    between atoms: _313  and  _316
REMARK  141  A    between atoms: _316  and  _317
REMARK  142  A    between atoms: _323  and  _325
REMARK  143  A    between atoms: _325  and  _326
REMARK  144  A    between atoms: _328  and  _330
REMARK  145  A    between atoms: _330  and  _331
REMARK  146  A    between atoms: _330  and  _333
REMARK  147  A    between atoms: _336  and  _338
REMARK  148  A    between atoms: _338  and  _339
REMARK  149  A    between atoms: _341  and  _343
REMARK  150  A    between atoms: _343  and  _344
REMARK  151  A    between atoms: _343  and  _346
REMARK  152  A    between atoms: _346  and  _347
REMARK  153  A    between atoms: _353  and  _355
REMARK  154  A    between atoms: _355  and  _356
REMARK  155  A    between atoms: _355  and  _358
REMARK  156  A    between atoms: _358  and  _359
REMARK  157  A    between atoms: _364  and  _365
REMARK  158  A    between atoms: _367  and  _369
REMARK  159  A    between atoms: _369  and  _370
REMARK  160  A    between atoms: _373  and  _375
REMARK  161  A    between atoms: _375  and  _376
REMARK  162  A    between atoms: _375  and  _378
REMARK  163  A    between atoms: _378  and  _379
REMARK  164  A    between atoms: _384  and  _385
REMARK  165  A    between atoms: _387  and  _389
REMARK  166  A    between atoms: _389  and  _390
REMARK  167  A    between atoms: _389  and  _392
REMARK  168  A    between atoms: _395  and  _397
REMARK  169  A    between atoms: _397  and  _398
REMARK  170  A    between atoms: _397  and  _400
REMARK  171  A    between atoms: _400  and  _401
REMARK  172  A    between atoms: _404  and  _406
REMARK  173  A    between atoms: _406  and  _407
REMARK  174  A    between atoms: _406  and  _409
REMARK  175  A    between atoms: _412  and  _414
REMARK  176  A    between atoms: _414  and  _415
REMARK  177  A    between atoms: _414  and  _417
REMARK  178  A    between atoms: _417  and  _418
REMARK  179  A    between atoms: _421  and  _423
REMARK  180  A    between atoms: _423  and  _424
REMARK  181  A    between atoms: _423  and  _426
REMARK  182  A    between atoms: _426  and  _427
REMARK  183  A    between atoms: _430  and  _432
REMARK  184  A    between atoms: _432  and  _433
REMARK  185  A    between atoms: _432  and  _435
REMARK  186  A    between atoms: _435  and  _436
REMARK  187  A    between atoms: _436  and  _437
REMARK  188  A    between atoms: _437  and  _438
REMARK  189  A    between atoms: _438  and  _439
REMARK  190  A    between atoms: _443  and  _445
REMARK  191  A    between atoms: _445  and  _446
REMARK  192  A    between atoms: _445  and  _448
REMARK  193  A    between atoms: _448  and  _449
REMARK  194  A    between atoms: _454  and  _456
REMARK  195  A    between atoms: _456  and  _457
REMARK  196  A    between atoms: _456  and  _459
REMARK  197  A    between atoms: _459  and  _460
REMARK  198  A    between atoms: _470  and  _472
REMARK  199  A    between atoms: _472  and  _473
REMARK  200  A    between atoms: _472  and  _475
REMARK  201  A    between atoms: _475  and  _476
REMARK  202  A    between atoms: _476  and  _477
REMARK  203  A    between atoms: _479  and  _481
REMARK  204  A    between atoms: _481  and  _482
REMARK  205  A    between atoms: _481  and  _484
REMARK  206  A    between atoms: _484  and  _485
REMARK  207  A    between atoms: _485  and  _486
REMARK  208  A    between atoms: _486  and  _487
REMARK  209  A    between atoms: _496  and  _498
REMARK  210  A    between atoms: _498  and  _499
REMARK  211  A    between atoms: _501  and  _503
REMARK  212  A    between atoms: _503  and  _504
REMARK  213  A    between atoms: _503  and  _506
REMARK  214  A    between atoms: _506  and  _507
REMARK  215  A    between atoms: _510  and  _512
REMARK  216  A    between atoms: _512  and  _513
REMARK  217  A    between atoms: _512  and  _515
REMARK  218  A    between atoms: _515  and  _516
REMARK  219  A    between atoms: _516  and  _517
REMARK  220  A    between atoms: _517  and  _518
REMARK  221  A    between atoms: _518  and  _519
REMARK  222  A    between atoms: _523  and  _525
REMARK  223  A    between atoms: _525  and  _526
REMARK  224  A    between atoms: _525  and  _528
REMARK  225  A    between atoms: _531  and  _533
REMARK  226  A    between atoms: _533  and  _534
REMARK  227  A    between atoms: _533  and  _536
REMARK  228  A    between atoms: _536  and  _537
REMARK  229  A    between atoms: _540  and  _542
REMARK  230  A    between atoms: _542  and  _543
REMARK  231  A    between atoms: _542  and  _545
REMARK  232  A    between atoms: _545  and  _546
REMARK                            x       y       z     vdW  Elec       q    Type
REMARK                         _______ _______ _______ _____ _____    ______ ____
ROOT
ATOM      1  O   HOH     1       2.629  33.188 -12.328  0.00  0.00    +0.000 OA
ENDROOT
TORSDOF 0
REMARK  Name = ../refined-set-2016/1yc1/1yc1_pocket.pdb
REMARK  232 active torsions:
REMARK  status: ('A' for Active; 'I' for Inactive)
REMARK    1  A    between atoms: _1  and  _3
REMARK    2  A    between atoms: _3  and  _4
REMARK    3  A    between atoms: _3  and  _6
REMARK    4  A    between atoms: _6  and  _7
REMARK    5  A    between atoms: _13  and  _15
REMARK    6  A    between atoms: _15  and  _16
REMARK    7  A    between atoms: _15  and  _18
REMARK    8  A    between atoms: _18  and  _19
REMARK    9  A    between atoms: _19  and  _20
REMARK   10  A    between atoms: _23  and  _25
REMARK   11  A    between atoms: _25  and  _26
REMARK   12  A    between atoms: _25  and  _28
REMARK   13  A    between atoms: _28  and  _29
REMARK   14  A    between atoms: _32  and  _34
REMARK   15  A    between atoms: _34  and  _35
REMARK   16  A    between atoms: _34  and  _37
REMARK   17  A    between atoms: _37  and  _38
REMARK   18  A    between atoms: _41  and  _43
REMARK   19  A    between atoms: _43  and  _44
REMARK   20  A    between atoms: _43  and  _46
REMARK   21  A    between atoms: _46  and  _47
REMARK   22  A    between atoms: _49  and  _51
REMARK   23  A    between atoms: _51  and  _52
REMARK   24  A    between atoms: _51  and  _54
REMARK   25  A    between atoms: _54  and  _55
REMARK   26  A    between atoms: _60  and  _62
REMARK   27  A    between atoms: _62  and  _63
REMARK   28  A    between atoms: _62  and  _65
REMARK   29  A    between atoms: _65  and  _66
REMARK   30  A    between atoms: _68  and  _70
REMARK   31  A    between atoms: _70  and  _71
REMARK   32  A    between atoms: _70  and  _73
REMARK   33  A    between atoms: _73  and  _74
REMARK   34  A    between atoms: _76  and  _78
REMARK   35  A    between atoms: _78  and  _79
REMARK   36  A    between atoms: _78  and  _81
REMARK   37  A    between atoms: _81  and  _82
REMARK   38  A    between atoms: _85  and  _87
REMARK   39  A    between atoms: _87  and  _88
REMARK   40  A    between atoms: _91  and  _93
REMARK   41  A    between atoms: _93  and  _94
REMARK   42  A    between atoms: _93  and  _96
REMARK   43  A    between atoms: _96  and  _97
REMARK   44  A    between atoms: _100  and  _102
REMARK   45  A    between atoms: _102  and  _103
REMARK   46  A    between atoms: _102  and  _105
REMARK   47  A    between atoms: _105  and  _106
REMARK   48  A    between atoms: _109  and  _111
REMARK   49  A    between atoms: _111  and  _112
REMARK   50  A    between atoms: _111  and  _114
REMARK   51  A    between atoms: _114  and  _115
REMARK   52  A    between atoms: _115  and  _116
REMARK   53  A    between atoms: _116  and  _117
REMARK   54  A    between atoms: _117  and  _118
REMARK   55  A    between atoms: _122  and  _124
REMARK   56  A    between atoms: _124  and  _125
REMARK   57  A    between atoms: _124  and  _127
REMARK   58  A    between atoms: _127  and  _128
REMARK   59  A    between atoms: _131  and  _133
REMARK   60  A    between atoms: _133  and  _134
REMARK   61  A    between atoms: _133  and  _136
REMARK   62  A    between atoms: _136  and  _137
REMARK   63  A    between atoms: _140  and  _142
REMARK   64  A    between atoms: _142  and  _143
REMARK   65  A    between atoms: _142  and  _145
REMARK   66  A    between atoms: _145  and  _146
REMARK   67  A    between atoms: _149  and  _151
REMARK   68  A    between atoms: _151  and  _152
REMARK   69  A    between atoms: _151  and  _154
REMARK   70  A    between atoms: _157  and  _159
REMARK   71  A    between atoms: _159  and  _160
REMARK   72  A    between atoms: _159  and  _162
REMARK   73  A    between atoms: _162  and  _163
REMARK   74  A    between atoms: _166  and  _168
REMARK   75  A    between atoms: _168  and  _169
REMARK   76  A    between atoms: _168  and  _171
REMARK   77  A    between atoms: _171  and  _172
REMARK   78  A    between atoms: _175  and  _177
REMARK   79  A    between atoms: _177  and  _178
REMARK   80  A    between atoms: _180  and  _182
REMARK   81  A    between atoms: _182  and  _183
REMARK   82  A    between atoms: _182  and  _185
REMARK   83  A    between atoms: _185  and  _186
REMARK   84  A    between atoms: _189  and  _191
REMARK   85  A    between atoms: _191  and  _192
REMARK   86  A    between atoms: _194  and  _196
REMARK   87  A    between atoms: _196  and  _197
REMARK   88  A    between atoms: _196  and  _199
REMARK   89  A    between atoms: _199  and  _200
REMARK   90  A    between atoms: _200  and  _201
REMARK   91  A    between atoms: _203  and  _205
REMARK   92  A    between atoms: _205  and  _206
REMARK   93  A    between atoms: _205  and  _208
REMARK   94  A    between atoms: _208  and  _209
REMARK   95  A    between atoms: _212  and  _214
REMARK   96  A    between atoms: _214  and  _215
REMARK   97  A    between atoms: _214  and  _217
REMARK   98  A    between atoms: _217  and  _218
REMARK   99  A    between atoms: _221  and  _223
REMARK  100  A    between atoms: _223  and  _224
REMARK  101  A    between atoms: _223  and  _226
REMARK  102  A    between atoms: _226  and  _227
REMARK  103  A    between atoms: _230  and  _232
REMARK  104  A    between atoms: _232  and  _233
REMARK  105  A    between atoms: _232  and  _235
REMARK  106  A    between atoms: _235  and  _236
REMARK  107  A    between atoms: _241  and  _243
REMARK  108  A    between atoms: _243  and  _244
REMARK  109  A    between atoms: _243  and  _246
REMARK  110  A    between atoms: _246  and  _247
REMARK  111  A    between atoms: _252  and  _254
REMARK  112  A    between atoms: _254  and  _255
REMARK  113  A    between atoms: _254  and  _257
REMARK  114  A    between atoms: _257  and  _258
REMARK  115  A    between atoms: _261  and  _263
REMARK  116  A    between atoms: _263  and  _264
REMARK  117  A    between atoms: _263  and  _266
REMARK  118  A    between atoms: _266  and  _267
REMARK  119  A    between atoms: _270  and  _272
REMARK  120  A    between atoms: _272  and  _273
REMARK  121  A    between atoms: _272  and  _275
REMARK  122  A    between atoms: _275  and  _276
REMARK  123  A    between atoms: _279  and  _281
REMARK  124  A    between atoms: _281  and  _282
REMARK  125  A    between atoms: _285  and  _287
REMARK  126  A    between atoms: _287  and  _288
REMARK  127  A    between atoms: _287  and  _290
REMARK  128  A    between atoms: _290  and  _291
REMARK  129  A    between atoms: _291  and  _292
REMARK  130  A    between atoms: _292  and  _293
REMARK  131  A    between atoms: _293  and  _294
REMARK  132  A    between atoms: _298  and  _300
REMARK  133  A    between atoms: _300  and  _301
REMARK  134  A    between atoms: _300  and  _303
REMARK  135  A    between atoms: _303  and  _304
REMARK  136  A    between atoms: _306  and  _308
REMARK  137  A    between atoms: _308  and  _309
REMARK  138  A    between atoms: _311  and  _313
REMARK  139  A    between atoms: _313  and  _314
REMARK  140  A    between atoms: _313  and  _316
REMARK  141  A    between atoms: _316  and  _317
REMARK  142  A    between atoms: _323  and  _325
REMARK  143  A    between atoms: _325  and  _326
REMARK  144  A    between atoms: _328  and  _330
REMARK  145  A    between atoms: _330  and  _331
REMARK  146  A    between atoms: _330  and  _333
REMARK  147  A    between atoms: _336  and  _338
REMARK  148  A    between atoms: _338  and  _339
REMARK  149  A    between atoms: _341  and  _343
REMARK  150  A    between atoms: _343  and  _344
REMARK  151  A    between atoms: _343  and  _346
REMARK  152  A    between atoms: _346  and  _347
REMARK  153  A    between atoms: _353  and  _355
REMARK  154  A    between atoms: _355  and  _356
REMARK  155  A    between atoms: _355  and  _358
REMARK  156  A    between atoms: _358  and  _359
REMARK  157  A    between atoms: _364  and  _365
REMARK  158  A    between atoms: _367  and  _369
REMARK  159  A    between atoms: _369  and  _370
REMARK  160  A    between atoms: _373  and  _375
REMARK  161  A    between atoms: _375  and  _376
REMARK  162  A    between atoms: _375  and  _378
REMARK  163  A    between atoms: _378  and  _379
REMARK  164  A    between atoms: _384  and  _385
REMARK  165  A    between atoms: _387  and  _389
REMARK  166  A    between atoms: _389  and  _390
REMARK  167  A    between atoms: _389  and  _392
REMARK  168  A    between atoms: _395  and  _397
REMARK  169  A    between atoms: _397  and  _398
REMARK  170  A    between atoms: _397  and  _400
REMARK  171  A    between atoms: _400  and  _401
REMARK  172  A    between atoms: _404  and  _406
REMARK  173  A    between atoms: _406  and  _407
REMARK  174  A    between atoms: _406  and  _409
REMARK  175  A    between atoms: _412  and  _414
REMARK  176  A    between atoms: _414  and  _415
REMARK  177  A    between atoms: _414  and  _417
REMARK  178  A    between atoms: _417  and  _418
REMARK  179  A    between atoms: _421  and  _423
REMARK  180  A    between atoms: _423  and  _424
REMARK  181  A    between atoms: _423  and  _426
REMARK  182  A    between atoms: _426  and  _427
REMARK  183  A    between atoms: _430  and  _432
REMARK  184  A    between atoms: _432  and  _433
REMARK  185  A    between atoms: _432  and  _435
REMARK  186  A    between atoms: _435  and  _436
REMARK  187  A    between atoms: _436  and  _437
REMARK  188  A    between atoms: _437  and  _438
REMARK  189  A    between atoms: _438  and  _439
REMARK  190  A    between atoms: _443  and  _445
REMARK  191  A    between atoms: _445  and  _446
REMARK  192  A    between atoms: _445  and  _448
REMARK  193  A    between atoms: _448  and  _449
REMARK  194  A    between atoms: _454  and  _456
REMARK  195  A    between atoms: _456  and  _457
REMARK  196  A    between atoms: _456  and  _459
REMARK  197  A    between atoms: _459  and  _460
REMARK  198  A    between atoms: _470  and  _472
REMARK  199  A    between atoms: _472  and  _473
REMARK  200  A    between atoms: _472  and  _475
REMARK  201  A    between atoms: _475  and  _476
REMARK  202  A    between atoms: _476  and  _477
REMARK  203  A    between atoms: _479  and  _481
REMARK  204  A    between atoms: _481  and  _482
REMARK  205  A    between atoms: _481  and  _484
REMARK  206  A    between atoms: _484  and  _485
REMARK  207  A    between atoms: _485  and  _486
REMARK  208  A    between atoms: _486  and  _487
REMARK  209  A    between atoms: _496  and  _498
REMARK  210  A    between atoms: _498  and  _499
REMARK  211  A    between atoms: _501  and  _503
REMARK  212  A    between atoms: _503  and  _504
REMARK  213  A    between atoms: _503  and  _506
REMARK  214  A    between atoms: _506  and  _507
REMARK  215  A    between atoms: _510  and  _512
REMARK  216  A    between atoms: _512  and  _513
REMARK  217  A    between atoms: _512  and  _515
REMARK  218  A    between atoms: _515  and  _516
REMARK  219  A    between atoms: _516  and  _517
REMARK  220  A    between atoms: _517  and  _518
REMARK  221  A    between atoms: _518  and  _519
REMARK  222  A    between atoms: _523  and  _525
REMARK  223  A    between atoms: _525  and  _526
REMARK  224  A    between atoms: _525  and  _528
REMARK  225  A    between atoms: _531  and  _533
REMARK  226  A    between atoms: _533  and  _534
REMARK  227  A    between atoms: _533  and  _536
REMARK  228  A    between atoms: _536  and  _537
REMARK  229  A    between atoms: _540  and  _542
REMARK  230  A    between atoms: _542  and  _543
REMARK  231  A    between atoms: _542  and  _545
REMARK  232  A    between atoms: _545  and  _546
REMARK                            x       y       z     vdW  Elec       q    Type
REMARK                         _______ _______ _______ _____ _____    ______ ____
ROOT
ATOM      1  O   HOH     1       1.166  38.894  -5.177  0.00  0.00    +0.000 OA
ENDROOT
TORSDOF 0
REMARK  Name = ../refined-set-2016/1yc1/1yc1_pocket.pdb
REMARK  232 active torsions:
REMARK  status: ('A' for Active; 'I' for Inactive)
REMARK    1  A    between atoms: _1  and  _3
REMARK    2  A    between atoms: _3  and  _4
REMARK    3  A    between atoms: _3  and  _6
REMARK    4  A    between atoms: _6  and  _7
REMARK    5  A    between atoms: _13  and  _15
REMARK    6  A    between atoms: _15  and  _16
REMARK    7  A    between atoms: _15  and  _18
REMARK    8  A    between atoms: _18  and  _19
REMARK    9  A    between atoms: _19  and  _20
REMARK   10  A    between atoms: _23  and  _25
REMARK   11  A    between atoms: _25  and  _26
REMARK   12  A    between atoms: _25  and  _28
REMARK   13  A    between atoms: _28  and  _29
REMARK   14  A    between atoms: _32  and  _34
REMARK   15  A    between atoms: _34  and  _35
REMARK   16  A    between atoms: _34  and  _37
REMARK   17  A    between atoms: _37  and  _38
REMARK   18  A    between atoms: _41  and  _43
REMARK   19  A    between atoms: _43  and  _44
REMARK   20  A    between atoms: _43  and  _46
REMARK   21  A    between atoms: _46  and  _47
REMARK   22  A    between atoms: _49  and  _51
REMARK   23  A    between atoms: _51  and  _52
REMARK   24  A    between atoms: _51  and  _54
REMARK   25  A    between atoms: _54  and  _55
REMARK   26  A    between atoms: _60  and  _62
REMARK   27  A    between atoms: _62  and  _63
REMARK   28  A    between atoms: _62  and  _65
REMARK   29  A    between atoms: _65  and  _66
REMARK   30  A    between atoms: _68  and  _70
REMARK   31  A    between atoms: _70  and  _71
REMARK   32  A    between atoms: _70  and  _73
REMARK   33  A    between atoms: _73  and  _74
REMARK   34  A    between atoms: _76  and  _78
REMARK   35  A    between atoms: _78  and  _79
REMARK   36  A    between atoms: _78  and  _81
REMARK   37  A    between atoms: _81  and  _82
REMARK   38  A    between atoms: _85  and  _87
REMARK   39  A    between atoms: _87  and  _88
REMARK   40  A    between atoms: _91  and  _93
REMARK   41  A    between atoms: _93  and  _94
REMARK   42  A    between atoms: _93  and  _96
REMARK   43  A    between atoms: _96  and  _97
REMARK   44  A    between atoms: _100  and  _102
REMARK   45  A    between atoms: _102  and  _103
REMARK   46  A    between atoms: _102  and  _105
REMARK   47  A    between atoms: _105  and  _106
REMARK   48  A    between atoms: _109  and  _111
REMARK   49  A    between atoms: _111  and  _112
REMARK   50  A    between atoms: _111  and  _114
REMARK   51  A    between atoms: _114  and  _115
REMARK   52  A    between atoms: _115  and  _116
REMARK   53  A    between atoms: _116  and  _117
REMARK   54  A    between atoms: _117  and  _118
REMARK   55  A    between atoms: _122  and  _124
REMARK   56  A    between atoms: _124  and  _125
REMARK   57  A    between atoms: _124  and  _127
REMARK   58  A    between atoms: _127  and  _128
REMARK   59  A    between atoms: _131  and  _133
REMARK   60  A    between atoms: _133  and  _134
REMARK   61  A    between atoms: _133  and  _136
REMARK   62  A    between atoms: _136  and  _137
REMARK   63  A    between atoms: _140  and  _142
REMARK   64  A    between atoms: _142  and  _143
REMARK   65  A    between atoms: _142  and  _145
REMARK   66  A    between atoms: _145  and  _146
REMARK   67  A    between atoms: _149  and  _151
REMARK   68  A    between atoms: _151  and  _152
REMARK   69  A    between atoms: _151  and  _154
REMARK   70  A    between atoms: _157  and  _159
REMARK   71  A    between atoms: _159  and  _160
REMARK   72  A    between atoms: _159  and  _162
REMARK   73  A    between atoms: _162  and  _163
REMARK   74  A    between atoms: _166  and  _168
REMARK   75  A    between atoms: _168  and  _169
REMARK   76  A    between atoms: _168  and  _171
REMARK   77  A    between atoms: _171  and  _172
REMARK   78  A    between atoms: _175  and  _177
REMARK   79  A    between atoms: _177  and  _178
REMARK   80  A    between atoms: _180  and  _182
REMARK   81  A    between atoms: _182  and  _183
REMARK   82  A    between atoms: _182  and  _185
REMARK   83  A    between atoms: _185  and  _186
REMARK   84  A    between atoms: _189  and  _191
REMARK   85  A    between atoms: _191  and  _192
REMARK   86  A    between atoms: _194  and  _196
REMARK   87  A    between atoms: _196  and  _197
REMARK   88  A    between atoms: _196  and  _199
REMARK   89  A    between atoms: _199  and  _200
REMARK   90  A    between atoms: _200  and  _201
REMARK   91  A    between atoms: _203  and  _205
REMARK   92  A    between atoms: _205  and  _206
REMARK   93  A    between atoms: _205  and  _208
REMARK   94  A    between atoms: _208  and  _209
REMARK   95  A    between atoms: _212  and  _214
REMARK   96  A    between atoms: _214  and  _215
REMARK   97  A    between atoms: _214  and  _217
REMARK   98  A    between atoms: _217  and  _218
REMARK   99  A    between atoms: _221  and  _223
REMARK  100  A    between atoms: _223  and  _224
REMARK  101  A    between atoms: _223  and  _226
REMARK  102  A    between atoms: _226  and  _227
REMARK  103  A    between atoms: _230  and  _232
REMARK  104  A    between atoms: _232  and  _233
REMARK  105  A    between atoms: _232  and  _235
REMARK  106  A    between atoms: _235  and  _236
REMARK  107  A    between atoms: _241  and  _243
REMARK  108  A    between atoms: _243  and  _244
REMARK  109  A    between atoms: _243  and  _246
REMARK  110  A    between atoms: _246  and  _247
REMARK  111  A    between atoms: _252  and  _254
REMARK  112  A    between atoms: _254  and  _255
REMARK  113  A    between atoms: _254  and  _257
REMARK  114  A    between atoms: _257  and  _258
REMARK  115  A    between atoms: _261  and  _263
REMARK  116  A    between atoms: _263  and  _264
REMARK  117  A    between atoms: _263  and  _266
REMARK  118  A    between atoms: _266  and  _267
REMARK  119  A    between atoms: _270  and  _272
REMARK  120  A    between atoms: _272  and  _273
REMARK  121  A    between atoms: _272  and  _275
REMARK  122  A    between atoms: _275  and  _276
REMARK  123  A    between atoms: _279  and  _281
REMARK  124  A    between atoms: _281  and  _282
REMARK  125  A    between atoms: _285  and  _287
REMARK  126  A    between atoms: _287  and  _288
REMARK  127  A    between atoms: _287  and  _290
REMARK  128  A    between atoms: _290  and  _291
REMARK  129  A    between atoms: _291  and  _292
REMARK  130  A    between atoms: _292  and  _293
REMARK  131  A    between atoms: _293  and  _294
REMARK  132  A    between atoms: _298  and  _300
REMARK  133  A    between atoms: _300  and  _301
REMARK  134  A    between atoms: _300  and  _303
REMARK  135  A    between atoms: _303  and  _304
REMARK  136  A    between atoms: _306  and  _308
REMARK  137  A    between atoms: _308  and  _309
REMARK  138  A    between atoms: _311  and  _313
REMARK  139  A    between atoms: _313  and  _314
REMARK  140  A    between atoms: _313  and  _316
REMARK  141  A    between atoms: _316  and  _317
REMARK  142  A    between atoms: _323  and  _325
REMARK  143  A    between atoms: _325  and  _326
REMARK  144  A    between atoms: _328  and  _330
REMARK  145  A    between atoms: _330  and  _331
REMARK  146  A    between atoms: _330  and  _333
REMARK  147  A    between atoms: _336  and  _338
REMARK  148  A    between atoms: _338  and  _339
REMARK  149  A    between atoms: _341  and  _343
REMARK  150  A    between atoms: _343  and  _344
REMARK  151  A    between atoms: _343  and  _346
REMARK  152  A    between atoms: _346  and  _347
REMARK  153  A    between atoms: _353  and  _355
REMARK  154  A    between atoms: _355  and  _356
REMARK  155  A    between atoms: _355  and  _358
REMARK  156  A    between atoms: _358  and  _359
REMARK  157  A    between atoms: _364  and  _365
REMARK  158  A    between atoms: _367  and  _369
REMARK  159  A    between atoms: _369  and  _370
REMARK  160  A    between atoms: _373  and  _375
REMARK  161  A    between atoms: _375  and  _376
REMARK  162  A    between atoms: _375  and  _378
REMARK  163  A    between atoms: _378  and  _379
REMARK  164  A    between atoms: _384  and  _385
REMARK  165  A    between atoms: _387  and  _389
REMARK  166  A    between atoms: _389  and  _390
REMARK  167  A    between atoms: _389  and  _392
REMARK  168  A    between atoms: _395  and  _397
REMARK  169  A    between atoms: _397  and  _398
REMARK  170  A    between atoms: _397  and  _400
REMARK  171  A    between atoms: _400  and  _401
REMARK  172  A    between atoms: _404  and  _406
REMARK  173  A    between atoms: _406  and  _407
REMARK  174  A    between atoms: _406  and  _409
REMARK  175  A    between atoms: _412  and  _414
REMARK  176  A    between atoms: _414  and  _415
REMARK  177  A    between atoms: _414  and  _417
REMARK  178  A    between atoms: _417  and  _418
REMARK  179  A    between atoms: _421  and  _423
REMARK  180  A    between atoms: _423  and  _424
REMARK  181  A    between atoms: _423  and  _426
REMARK  182  A    between atoms: _426  and  _427
REMARK  183  A    between atoms: _430  and  _432
REMARK  184  A    between atoms: _432  and  _433
REMARK  185  A    between atoms: _432  and  _435
REMARK  186  A    between atoms: _435  and  _436
REMARK  187  A    between atoms: _436  and  _437
REMARK  188  A    between atoms: _437  and  _438
REMARK  189  A    between atoms: _438  and  _439
REMARK  190  A    between atoms: _443  and  _445
REMARK  191  A    between atoms: _445  and  _446
REMARK  192  A    between atoms: _445  and  _448
REMARK  193  A    between atoms: _448  and  _449
REMARK  194  A    between atoms: _454  and  _456
REMARK  195  A    between atoms: _456  and  _457
REMARK  196  A    between atoms: _456  and  _459
REMARK  197  A    between atoms: _459  and  _460
REMARK  198  A    between atoms: _470  and  _472
REMARK  199  A    between atoms: _472  and  _473
REMARK  200  A    between atoms: _472  and  _475
REMARK  201  A    between atoms: _475  and  _476
REMARK  202  A    between atoms: _476  and  _477
REMARK  203  A    between atoms: _479  and  _481
REMARK  204  A    between atoms: _481  and  _482
REMARK  205  A    between atoms: _481  and  _484
REMARK  206  A    between atoms: _484  and  _485
REMARK  207  A    between atoms: _485  and  _486
REMARK  208  A    between atoms: _486  and  _487
REMARK  209  A    between atoms: _496  and  _498
REMARK  210  A    between atoms: _498  and  _499
REMARK  211  A    between atoms: _501  and  _503
REMARK  212  A    between atoms: _503  and  _504
REMARK  213  A    between atoms: _503  and  _506
REMARK  214  A    between atoms: _506  and  _507
REMARK  215  A    between atoms: _510  and  _512
REMARK  216  A    between atoms: _512  and  _513
REMARK  217  A    between atoms: _512  and  _515
REMARK  218  A    between atoms: _515  and  _516
REMARK  219  A    between atoms: _516  and  _517
REMARK  220  A    between atoms: _517  and  _518
REMARK  221  A    between atoms: _518  and  _519
REMARK  222  A    between atoms: _523  and  _525
REMARK  223  A    between atoms: _525  and  _526
REMARK  224  A    between atoms: _525  and  _528
REMARK  225  A    between atoms: _531  and  _533
REMARK  226  A    between atoms: _533  and  _534
REMARK  227  A    between atoms: _533  and  _536
REMARK  228  A    between atoms: _536  and  _537
REMARK  229  A    between atoms: _540  and  _542
REMARK  230  A    between atoms: _542  and  _543
REMARK  231  A    between atoms: _542  and  _545
REMARK  232  A    between atoms: _545  and  _546
REMARK                            x       y       z     vdW  Elec       q    Type
REMARK                         _______ _______ _______ _____ _____    ______ ____
ROOT
ATOM      1  O   HOH     1      -0.687  39.576   1.052  0.00  0.00    +0.000 OA
ENDROOT
TORSDOF 0
REMARK  Name = ../refined-set-2016/1yc1/1yc1_pocket.pdb
REMARK  232 active torsions:
REMARK  status: ('A' for Active; 'I' for Inactive)
REMARK    1  A    between atoms: _1  and  _3
REMARK    2  A    between atoms: _3  and  _4
REMARK    3  A    between atoms: _3  and  _6
REMARK    4  A    between atoms: _6  and  _7
REMARK    5  A    between atoms: _13  and  _15
REMARK    6  A    between atoms: _15  and  _16
REMARK    7  A    between atoms: _15  and  _18
REMARK    8  A    between atoms: _18  and  _19
REMARK    9  A    between atoms: _19  and  _20
REMARK   10  A    between atoms: _23  and  _25
REMARK   11  A    between atoms: _25  and  _26
REMARK   12  A    between atoms: _25  and  _28
REMARK   13  A    between atoms: _28  and  _29
REMARK   14  A    between atoms: _32  and  _34
REMARK   15  A    between atoms: _34  and  _35
REMARK   16  A    between atoms: _34  and  _37
REMARK   17  A    between atoms: _37  and  _38
REMARK   18  A    between atoms: _41  and  _43
REMARK   19  A    between atoms: _43  and  _44
REMARK   20  A    between atoms: _43  and  _46
REMARK   21  A    between atoms: _46  and  _47
REMARK   22  A    between atoms: _49  and  _51
REMARK   23  A    between atoms: _51  and  _52
REMARK   24  A    between atoms: _51  and  _54
REMARK   25  A    between atoms: _54  and  _55
REMARK   26  A    between atoms: _60  and  _62
REMARK   27  A    between atoms: _62  and  _63
REMARK   28  A    between atoms: _62  and  _65
REMARK   29  A    between atoms: _65  and  _66
REMARK   30  A    between atoms: _68  and  _70
REMARK   31  A    between atoms: _70  and  _71
REMARK   32  A    between atoms: _70  and  _73
REMARK   33  A    between atoms: _73  and  _74
REMARK   34  A    between atoms: _76  and  _78
REMARK   35  A    between atoms: _78  and  _79
REMARK   36  A    between atoms: _78  and  _81
REMARK   37  A    between atoms: _81  and  _82
REMARK   38  A    between atoms: _85  and  _87
REMARK   39  A    between atoms: _87  and  _88
REMARK   40  A    between atoms: _91  and  _93
REMARK   41  A    between atoms: _93  and  _94
REMARK   42  A    between atoms: _93  and  _96
REMARK   43  A    between atoms: _96  and  _97
REMARK   44  A    between atoms: _100  and  _102
REMARK   45  A    between atoms: _102  and  _103
REMARK   46  A    between atoms: _102  and  _105
REMARK   47  A    between atoms: _105  and  _106
REMARK   48  A    between atoms: _109  and  _111
REMARK   49  A    between atoms: _111  and  _112
REMARK   50  A    between atoms: _111  and  _114
REMARK   51  A    between atoms: _114  and  _115
REMARK   52  A    between atoms: _115  and  _116
REMARK   53  A    between atoms: _116  and  _117
REMARK   54  A    between atoms: _117  and  _118
REMARK   55  A    between atoms: _122  and  _124
REMARK   56  A    between atoms: _124  and  _125
REMARK   57  A    between atoms: _124  and  _127
REMARK   58  A    between atoms: _127  and  _128
REMARK   59  A    between atoms: _131  and  _133
REMARK   60  A    between atoms: _133  and  _134
REMARK   61  A    between atoms: _133  and  _136
REMARK   62  A    between atoms: _136  and  _137
REMARK   63  A    between atoms: _140  and  _142
REMARK   64  A    between atoms: _142  and  _143
REMARK   65  A    between atoms: _142  and  _145
REMARK   66  A    between atoms: _145  and  _146
REMARK   67  A    between atoms: _149  and  _151
REMARK   68  A    between atoms: _151  and  _152
REMARK   69  A    between atoms: _151  and  _154
REMARK   70  A    between atoms: _157  and  _159
REMARK   71  A    between atoms: _159  and  _160
REMARK   72  A    between atoms: _159  and  _162
REMARK   73  A    between atoms: _162  and  _163
REMARK   74  A    between atoms: _166  and  _168
REMARK   75  A    between atoms: _168  and  _169
REMARK   76  A    between atoms: _168  and  _171
REMARK   77  A    between atoms: _171  and  _172
REMARK   78  A    between atoms: _175  and  _177
REMARK   79  A    between atoms: _177  and  _178
REMARK   80  A    between atoms: _180  and  _182
REMARK   81  A    between atoms: _182  and  _183
REMARK   82  A    between atoms: _182  and  _185
REMARK   83  A    between atoms: _185  and  _186
REMARK   84  A    between atoms: _189  and  _191
REMARK   85  A    between atoms: _191  and  _192
REMARK   86  A    between atoms: _194  and  _196
REMARK   87  A    between atoms: _196  and  _197
REMARK   88  A    between atoms: _196  and  _199
REMARK   89  A    between atoms: _199  and  _200
REMARK   90  A    between atoms: _200  and  _201
REMARK   91  A    between atoms: _203  and  _205
REMARK   92  A    between atoms: _205  and  _206
REMARK   93  A    between atoms: _205  and  _208
REMARK   94  A    between atoms: _208  and  _209
REMARK   95  A    between atoms: _212  and  _214
REMARK   96  A    between atoms: _214  and  _215
REMARK   97  A    between atoms: _214  and  _217
REMARK   98  A    between atoms: _217  and  _218
REMARK   99  A    between atoms: _221  and  _223
REMARK  100  A    between atoms: _223  and  _224
REMARK  101  A    between atoms: _223  and  _226
REMARK  102  A    between atoms: _226  and  _227
REMARK  103  A    between atoms: _230  and  _232
REMARK  104  A    between atoms: _232  and  _233
REMARK  105  A    between atoms: _232  and  _235
REMARK  106  A    between atoms: _235  and  _236
REMARK  107  A    between atoms: _241  and  _243
REMARK  108  A    between atoms: _243  and  _244
REMARK  109  A    between atoms: _243  and  _246
REMARK  110  A    between atoms: _246  and  _247
REMARK  111  A    between atoms: _252  and  _254
REMARK  112  A    between atoms: _254  and  _255
REMARK  113  A    between atoms: _254  and  _257
REMARK  114  A    between atoms: _257  and  _258
REMARK  115  A    between atoms: _261  and  _263
REMARK  116  A    between atoms: _263  and  _264
REMARK  117  A    between atoms: _263  and  _266
REMARK  118  A    between atoms: _266  and  _267
REMARK  119  A    between atoms: _270  and  _272
REMARK  120  A    between atoms: _272  and  _273
REMARK  121  A    between atoms: _272  and  _275
REMARK  122  A    between atoms: _275  and  _276
REMARK  123  A    between atoms: _279  and  _281
REMARK  124  A    between atoms: _281  and  _282
REMARK  125  A    between atoms: _285  and  _287
REMARK  126  A    between atoms: _287  and  _288
REMARK  127  A    between atoms: _287  and  _290
REMARK  128  A    between atoms: _290  and  _291
REMARK  129  A    between atoms: _291  and  _292
REMARK  130  A    between atoms: _292  and  _293
REMARK  131  A    between atoms: _293  and  _294
REMARK  132  A    between atoms: _298  and  _300
REMARK  133  A    between atoms: _300  and  _301
REMARK  134  A    between atoms: _300  and  _303
REMARK  135  A    between atoms: _303  and  _304
REMARK  136  A    between atoms: _306  and  _308
REMARK  137  A    between atoms: _308  and  _309
REMARK  138  A    between atoms: _311  and  _313
REMARK  139  A    between atoms: _313  and  _314
REMARK  140  A    between atoms: _313  and  _316
REMARK  141  A    between atoms: _316  and  _317
REMARK  142  A    between atoms: _323  and  _325
REMARK  143  A    between atoms: _325  and  _326
REMARK  144  A    between atoms: _328  and  _330
REMARK  145  A    between atoms: _330  and  _331
REMARK  146  A    between atoms: _330  and  _333
REMARK  147  A    between atoms: _336  and  _338
REMARK  148  A    between atoms: _338  and  _339
REMARK  149  A    between atoms: _341  and  _343
REMARK  150  A    between atoms: _343  and  _344
REMARK  151  A    between atoms: _343  and  _346
REMARK  152  A    between atoms: _346  and  _347
REMARK  153  A    between atoms: _353  and  _355
REMARK  154  A    between atoms: _355  and  _356
REMARK  155  A    between atoms: _355  and  _358
REMARK  156  A    between atoms: _358  and  _359
REMARK  157  A    between atoms: _364  and  _365
REMARK  158  A    between atoms: _367  and  _369
REMARK  159  A    between atoms: _369  and  _370
REMARK  160  A    between atoms: _373  and  _375
REMARK  161  A    between atoms: _375  and  _376
REMARK  162  A    between atoms: _375  and  _378
REMARK  163  A    between atoms: _378  and  _379
REMARK  164  A    between atoms: _384  and  _385
REMARK  165  A    between atoms: _387  and  _389
REMARK  166  A    between atoms: _389  and  _390
REMARK  167  A    between atoms: _389  and  _392
REMARK  168  A    between atoms: _395  and  _397
REMARK  169  A    between atoms: _397  and  _398
REMARK  170  A    between atoms: _397  and  _400
REMARK  171  A    between atoms: _400  and  _401
REMARK  172  A    between atoms: _404  and  _406
REMARK  173  A    between atoms: _406  and  _407
REMARK  174  A    between atoms: _406  and  _409
REMARK  175  A    between atoms: _412  and  _414
REMARK  176  A    between atoms: _414  and  _415
REMARK  177  A    between atoms: _414  and  _417
REMARK  178  A    between atoms: _417  and  _418
REMARK  179  A    between atoms: _421  and  _423
REMARK  180  A    between atoms: _423  and  _424
REMARK  181  A    between atoms: _423  and  _426
REMARK  182  A    between atoms: _426  and  _427
REMARK  183  A    between atoms: _430  and  _432
REMARK  184  A    between atoms: _432  and  _433
REMARK  185  A    between atoms: _432  and  _435
REMARK  186  A    between atoms: _435  and  _436
REMARK  187  A    between atoms: _436  and  _437
REMARK  188  A    between atoms: _437  and  _438
REMARK  189  A    between atoms: _438  and  _439
REMARK  190  A    between atoms: _443  and  _445
REMARK  191  A    between atoms: _445  and  _446
REMARK  192  A    between atoms: _445  and  _448
REMARK  193  A    between atoms: _448  and  _449
REMARK  194  A    between atoms: _454  and  _456
REMARK  195  A    between atoms: _456  and  _457
REMARK  196  A    between atoms: _456  and  _459
REMARK  197  A    between atoms: _459  and  _460
REMARK  198  A    between atoms: _470  and  _472
REMARK  199  A    between atoms: _472  and  _473
REMARK  200  A    between atoms: _472  and  _475
REMARK  201  A    between atoms: _475  and  _476
REMARK  202  A    between atoms: _476  and  _477
REMARK  203  A    between atoms: _479  and  _481
REMARK  204  A    between atoms: _481  and  _482
REMARK  205  A    between atoms: _481  and  _484
REMARK  206  A    between atoms: _484  and  _485
REMARK  207  A    between atoms: _485  and  _486
REMARK  208  A    between atoms: _486  and  _487
REMARK  209  A    between atoms: _496  and  _498
REMARK  210  A    between atoms: _498  and  _499
REMARK  211  A    between atoms: _501  and  _503
REMARK  212  A    between atoms: _503  and  _504
REMARK  213  A    between atoms: _503  and  _506
REMARK  214  A    between atoms: _506  and  _507
REMARK  215  A    between atoms: _510  and  _512
REMARK  216  A    between atoms: _512  and  _513
REMARK  217  A    between atoms: _512  and  _515
REMARK  218  A    between atoms: _515  and  _516
REMARK  219  A    between atoms: _516  and  _517
REMARK  220  A    between atoms: _517  and  _518
REMARK  221  A    between atoms: _518  and  _519
REMARK  222  A    between atoms: _523  and  _525
REMARK  223  A    between atoms: _525  and  _526
REMARK  224  A    between atoms: _525  and  _528
REMARK  225  A    between atoms: _531  and  _533
REMARK  226  A    between atoms: _533  and  _534
REMARK  227  A    between atoms: _533  and  _536
REMARK  228  A    between atoms: _536  and  _537
REMARK  229  A    between atoms: _540  and  _542
REMARK  230  A    between atoms: _542  and  _543
REMARK  231  A    between atoms: _542  and  _545
REMARK  232  A    between atoms: _545  and  _546
REMARK                            x       y       z     vdW  Elec       q    Type
REMARK                         _______ _______ _______ _____ _____    ______ ____
ROOT
ATOM      1  O   HOH     1       7.435  44.701  -1.343  0.00  0.00    +0.000 OA
ENDROOT
TORSDOF 0
REMARK  Name = ../refined-set-2016/1yc1/1yc1_pocket.pdb
REMARK  232 active torsions:
REMARK  status: ('A' for Active; 'I' for Inactive)
REMARK    1  A    between atoms: _1  and  _3
REMARK    2  A    between atoms: _3  and  _4
REMARK    3  A    between atoms: _3  and  _6
REMARK    4  A    between atoms: _6  and  _7
REMARK    5  A    between atoms: _13  and  _15
REMARK    6  A    between atoms: _15  and  _16
REMARK    7  A    between atoms: _15  and  _18
REMARK    8  A    between atoms: _18  and  _19
REMARK    9  A    between atoms: _19  and  _20
REMARK   10  A    between atoms: _23  and  _25
REMARK   11  A    between atoms: _25  and  _26
REMARK   12  A    between atoms: _25  and  _28
REMARK   13  A    between atoms: _28  and  _29
REMARK   14  A    between atoms: _32  and  _34
REMARK   15  A    between atoms: _34  and  _35
REMARK   16  A    between atoms: _34  and  _37
REMARK   17  A    between atoms: _37  and  _38
REMARK   18  A    between atoms: _41  and  _43
REMARK   19  A    between atoms: _43  and  _44
REMARK   20  A    between atoms: _43  and  _46
REMARK   21  A    between atoms: _46  and  _47
REMARK   22  A    between atoms: _49  and  _51
REMARK   23  A    between atoms: _51  and  _52
REMARK   24  A    between atoms: _51  and  _54
REMARK   25  A    between atoms: _54  and  _55
REMARK   26  A    between atoms: _60  and  _62
REMARK   27  A    between atoms: _62  and  _63
REMARK   28  A    between atoms: _62  and  _65
REMARK   29  A    between atoms: _65  and  _66
REMARK   30  A    between atoms: _68  and  _70
REMARK   31  A    between atoms: _70  and  _71
REMARK   32  A    between atoms: _70  and  _73
REMARK   33  A    between atoms: _73  and  _74
REMARK   34  A    between atoms: _76  and  _78
REMARK   35  A    between atoms: _78  and  _79
REMARK   36  A    between atoms: _78  and  _81
REMARK   37  A    between atoms: _81  and  _82
REMARK   38  A    between atoms: _85  and  _87
REMARK   39  A    between atoms: _87  and  _88
REMARK   40  A    between atoms: _91  and  _93
REMARK   41  A    between atoms: _93  and  _94
REMARK   42  A    between atoms: _93  and  _96
REMARK   43  A    between atoms: _96  and  _97
REMARK   44  A    between atoms: _100  and  _102
REMARK   45  A    between atoms: _102  and  _103
REMARK   46  A    between atoms: _102  and  _105
REMARK   47  A    between atoms: _105  and  _106
REMARK   48  A    between atoms: _109  and  _111
REMARK   49  A    between atoms: _111  and  _112
REMARK   50  A    between atoms: _111  and  _114
REMARK   51  A    between atoms: _114  and  _115
REMARK   52  A    between atoms: _115  and  _116
REMARK   53  A    between atoms: _116  and  _117
REMARK   54  A    between atoms: _117  and  _118
REMARK   55  A    between atoms: _122  and  _124
REMARK   56  A    between atoms: _124  and  _125
REMARK   57  A    between atoms: _124  and  _127
REMARK   58  A    between atoms: _127  and  _128
REMARK   59  A    between atoms: _131  and  _133
REMARK   60  A    between atoms: _133  and  _134
REMARK   61  A    between atoms: _133  and  _136
REMARK   62  A    between atoms: _136  and  _137
REMARK   63  A    between atoms: _140  and  _142
REMARK   64  A    between atoms: _142  and  _143
REMARK   65  A    between atoms: _142  and  _145
REMARK   66  A    between atoms: _145  and  _146
REMARK   67  A    between atoms: _149  and  _151
REMARK   68  A    between atoms: _151  and  _152
REMARK   69  A    between atoms: _151  and  _154
REMARK   70  A    between atoms: _157  and  _159
REMARK   71  A    between atoms: _159  and  _160
REMARK   72  A    between atoms: _159  and  _162
REMARK   73  A    between atoms: _162  and  _163
REMARK   74  A    between atoms: _166  and  _168
REMARK   75  A    between atoms: _168  and  _169
REMARK   76  A    between atoms: _168  and  _171
REMARK   77  A    between atoms: _171  and  _172
REMARK   78  A    between atoms: _175  and  _177
REMARK   79  A    between atoms: _177  and  _178
REMARK   80  A    between atoms: _180  and  _182
REMARK   81  A    between atoms: _182  and  _183
REMARK   82  A    between atoms: _182  and  _185
REMARK   83  A    between atoms: _185  and  _186
REMARK   84  A    between atoms: _189  and  _191
REMARK   85  A    between atoms: _191  and  _192
REMARK   86  A    between atoms: _194  and  _196
REMARK   87  A    between atoms: _196  and  _197
REMARK   88  A    between atoms: _196  and  _199
REMARK   89  A    between atoms: _199  and  _200
REMARK   90  A    between atoms: _200  and  _201
REMARK   91  A    between atoms: _203  and  _205
REMARK   92  A    between atoms: _205  and  _206
REMARK   93  A    between atoms: _205  and  _208
REMARK   94  A    between atoms: _208  and  _209
REMARK   95  A    between atoms: _212  and  _214
REMARK   96  A    between atoms: _214  and  _215
REMARK   97  A    between atoms: _214  and  _217
REMARK   98  A    between atoms: _217  and  _218
REMARK   99  A    between atoms: _221  and  _223
REMARK  100  A    between atoms: _223  and  _224
REMARK  101  A    between atoms: _223  and  _226
REMARK  102  A    between atoms: _226  and  _227
REMARK  103  A    between atoms: _230  and  _232
REMARK  104  A    between atoms: _232  and  _233
REMARK  105  A    between atoms: _232  and  _235
REMARK  106  A    between atoms: _235  and  _236
REMARK  107  A    between atoms: _241  and  _243
REMARK  108  A    between atoms: _243  and  _244
REMARK  109  A    between atoms: _243  and  _246
REMARK  110  A    between atoms: _246  and  _247
REMARK  111  A    between atoms: _252  and  _254
REMARK  112  A    between atoms: _254  and  _255
REMARK  113  A    between atoms: _254  and  _257
REMARK  114  A    between atoms: _257  and  _258
REMARK  115  A    between atoms: _261  and  _263
REMARK  116  A    between atoms: _263  and  _264
REMARK  117  A    between atoms: _263  and  _266
REMARK  118  A    between atoms: _266  and  _267
REMARK  119  A    between atoms: _270  and  _272
REMARK  120  A    between atoms: _272  and  _273
REMARK  121  A    between atoms: _272  and  _275
REMARK  122  A    between atoms: _275  and  _276
REMARK  123  A    between atoms: _279  and  _281
REMARK  124  A    between atoms: _281  and  _282
REMARK  125  A    between atoms: _285  and  _287
REMARK  126  A    between atoms: _287  and  _288
REMARK  127  A    between atoms: _287  and  _290
REMARK  128  A    between atoms: _290  and  _291
REMARK  129  A    between atoms: _291  and  _292
REMARK  130  A    between atoms: _292  and  _293
REMARK  131  A    between atoms: _293  and  _294
REMARK  132  A    between atoms: _298  and  _300
REMARK  133  A    between atoms: _300  and  _301
REMARK  134  A    between atoms: _300  and  _303
REMARK  135  A    between atoms: _303  and  _304
REMARK  136  A    between atoms: _306  and  _308
REMARK  137  A    between atoms: _308  and  _309
REMARK  138  A    between atoms: _311  and  _313
REMARK  139  A    between atoms: _313  and  _314
REMARK  140  A    between atoms: _313  and  _316
REMARK  141  A    between atoms: _316  and  _317
REMARK  142  A    between atoms: _323  and  _325
REMARK  143  A    between atoms: _325  and  _326
REMARK  144  A    between atoms: _328  and  _330
REMARK  145  A    between atoms: _330  and  _331
REMARK  146  A    between atoms: _330  and  _333
REMARK  147  A    between atoms: _336  and  _338
REMARK  148  A    between atoms: _338  and  _339
REMARK  149  A    between atoms: _341  and  _343
REMARK  150  A    between atoms: _343  and  _344
REMARK  151  A    between atoms: _343  and  _346
REMARK  152  A    between atoms: _346  and  _347
REMARK  153  A    between atoms: _353  and  _355
REMARK  154  A    between atoms: _355  and  _356
REMARK  155  A    between atoms: _355  and  _358
REMARK  156  A    between atoms: _358  and  _359
REMARK  157  A    between atoms: _364  and  _365
REMARK  158  A    between atoms: _367  and  _369
REMARK  159  A    between atoms: _369  and  _370
REMARK  160  A    between atoms: _373  and  _375
REMARK  161  A    between atoms: _375  and  _376
REMARK  162  A    between atoms: _375  and  _378
REMARK  163  A    between atoms: _378  and  _379
REMARK  164  A    between atoms: _384  and  _385
REMARK  165  A    between atoms: _387  and  _389
REMARK  166  A    between atoms: _389  and  _390
REMARK  167  A    between atoms: _389  and  _392
REMARK  168  A    between atoms: _395  and  _397
REMARK  169  A    between atoms: _397  and  _398
REMARK  170  A    between atoms: _397  and  _400
REMARK  171  A    between atoms: _400  and  _401
REMARK  172  A    between atoms: _404  and  _406
REMARK  173  A    between atoms: _406  and  _407
REMARK  174  A    between atoms: _406  and  _409
REMARK  175  A    between atoms: _412  and  _414
REMARK  176  A    between atoms: _414  and  _415
REMARK  177  A    between atoms: _414  and  _417
REMARK  178  A    between atoms: _417  and  _418
REMARK  179  A    between atoms: _421  and  _423
REMARK  180  A    between atoms: _423  and  _424
REMARK  181  A    between atoms: _423  and  _426
REMARK  182  A    between atoms: _426  and  _427
REMARK  183  A    between atoms: _430  and  _432
REMARK  184  A    between atoms: _432  and  _433
REMARK  185  A    between atoms: _432  and  _435
REMARK  186  A    between atoms: _435  and  _436
REMARK  187  A    between atoms: _436  and  _437
REMARK  188  A    between atoms: _437  and  _438
REMARK  189  A    between atoms: _438  and  _439
REMARK  190  A    between atoms: _443  and  _445
REMARK  191  A    between atoms: _445  and  _446
REMARK  192  A    between atoms: _445  and  _448
REMARK  193  A    between atoms: _448  and  _449
REMARK  194  A    between atoms: _454  and  _456
REMARK  195  A    between atoms: _456  and  _457
REMARK  196  A    between atoms: _456  and  _459
REMARK  197  A    between atoms: _459  and  _460
REMARK  198  A    between atoms: _470  and  _472
REMARK  199  A    between atoms: _472  and  _473
REMARK  200  A    between atoms: _472  and  _475
REMARK  201  A    between atoms: _475  and  _476
REMARK  202  A    between atoms: _476  and  _477
REMARK  203  A    between atoms: _479  and  _481
REMARK  204  A    between atoms: _481  and  _482
REMARK  205  A    between atoms: _481  and  _484
REMARK  206  A    between atoms: _484  and  _485
REMARK  207  A    between atoms: _485  and  _486
REMARK  208  A    between atoms: _486  and  _487
REMARK  209  A    between atoms: _496  and  _498
REMARK  210  A    between atoms: _498  and  _499
REMARK  211  A    between atoms: _501  and  _503
REMARK  212  A    between atoms: _503  and  _504
REMARK  213  A    between atoms: _503  and  _506
REMARK  214  A    between atoms: _506  and  _507
REMARK  215  A    between atoms: _510  and  _512
REMARK  216  A    between atoms: _512  and  _513
REMARK  217  A    between atoms: _512  and  _515
REMARK  218  A    between atoms: _515  and  _516
REMARK  219  A    between atoms: _516  and  _517
REMARK  220  A    between atoms: _517  and  _518
REMARK  221  A    between atoms: _518  and  _519
REMARK  222  A    between atoms: _523  and  _525
REMARK  223  A    between atoms: _525  and  _526
REMARK  224  A    between atoms: _525  and  _528
REMARK  225  A    between atoms: _531  and  _533
REMARK  226  A    between atoms: _533  and  _534
REMARK  227  A    between atoms: _533  and  _536
REMARK  228  A    between atoms: _536  and  _537
REMARK  229  A    between atoms: _540  and  _542
REMARK  230  A    between atoms: _542  and  _543
REMARK  231  A    between atoms: _542  and  _545
REMARK  232  A    between atoms: _545  and  _546
REMARK                            x       y       z     vdW  Elec       q    Type
REMARK                         _______ _______ _______ _____ _____    ______ ____
ROOT
ATOM      1  O   HOH     1       6.198  36.182   0.492  0.00  0.00    +0.000 OA
ENDROOT
TORSDOF 0
REMARK  Name = ../refined-set-2016/1yc1/1yc1_pocket.pdb
REMARK  232 active torsions:
REMARK  status: ('A' for Active; 'I' for Inactive)
REMARK    1  A    between atoms: _1  and  _3
REMARK    2  A    between atoms: _3  and  _4
REMARK    3  A    between atoms: _3  and  _6
REMARK    4  A    between atoms: _6  and  _7
REMARK    5  A    between atoms: _13  and  _15
REMARK    6  A    between atoms: _15  and  _16
REMARK    7  A    between atoms: _15  and  _18
REMARK    8  A    between atoms: _18  and  _19
REMARK    9  A    between atoms: _19  and  _20
REMARK   10  A    between atoms: _23  and  _25
REMARK   11  A    between atoms: _25  and  _26
REMARK   12  A    between atoms: _25  and  _28
REMARK   13  A    between atoms: _28  and  _29
REMARK   14  A    between atoms: _32  and  _34
REMARK   15  A    between atoms: _34  and  _35
REMARK   16  A    between atoms: _34  and  _37
REMARK   17  A    between atoms: _37  and  _38
REMARK   18  A    between atoms: _41  and  _43
REMARK   19  A    between atoms: _43  and  _44
REMARK   20  A    between atoms: _43  and  _46
REMARK   21  A    between atoms: _46  and  _47
REMARK   22  A    between atoms: _49  and  _51
REMARK   23  A    between atoms: _51  and  _52
REMARK   24  A    between atoms: _51  and  _54
REMARK   25  A    between atoms: _54  and  _55
REMARK   26  A    between atoms: _60  and  _62
REMARK   27  A    between atoms: _62  and  _63
REMARK   28  A    between atoms: _62  and  _65
REMARK   29  A    between atoms: _65  and  _66
REMARK   30  A    between atoms: _68  and  _70
REMARK   31  A    between atoms: _70  and  _71
REMARK   32  A    between atoms: _70  and  _73
REMARK   33  A    between atoms: _73  and  _74
REMARK   34  A    between atoms: _76  and  _78
REMARK   35  A    between atoms: _78  and  _79
REMARK   36  A    between atoms: _78  and  _81
REMARK   37  A    between atoms: _81  and  _82
REMARK   38  A    between atoms: _85  and  _87
REMARK   39  A    between atoms: _87  and  _88
REMARK   40  A    between atoms: _91  and  _93
REMARK   41  A    between atoms: _93  and  _94
REMARK   42  A    between atoms: _93  and  _96
REMARK   43  A    between atoms: _96  and  _97
REMARK   44  A    between atoms: _100  and  _102
REMARK   45  A    between atoms: _102  and  _103
REMARK   46  A    between atoms: _102  and  _105
REMARK   47  A    between atoms: _105  and  _106
REMARK   48  A    between atoms: _109  and  _111
REMARK   49  A    between atoms: _111  and  _112
REMARK   50  A    between atoms: _111  and  _114
REMARK   51  A    between atoms: _114  and  _115
REMARK   52  A    between atoms: _115  and  _116
REMARK   53  A    between atoms: _116  and  _117
REMARK   54  A    between atoms: _117  and  _118
REMARK   55  A    between atoms: _122  and  _124
REMARK   56  A    between atoms: _124  and  _125
REMARK   57  A    between atoms: _124  and  _127
REMARK   58  A    between atoms: _127  and  _128
REMARK   59  A    between atoms: _131  and  _133
REMARK   60  A    between atoms: _133  and  _134
REMARK   61  A    between atoms: _133  and  _136
REMARK   62  A    between atoms: _136  and  _137
REMARK   63  A    between atoms: _140  and  _142
REMARK   64  A    between atoms: _142  and  _143
REMARK   65  A    between atoms: _142  and  _145
REMARK   66  A    between atoms: _145  and  _146
REMARK   67  A    between atoms: _149  and  _151
REMARK   68  A    between atoms: _151  and  _152
REMARK   69  A    between atoms: _151  and  _154
REMARK   70  A    between atoms: _157  and  _159
REMARK   71  A    between atoms: _159  and  _160
REMARK   72  A    between atoms: _159  and  _162
REMARK   73  A    between atoms: _162  and  _163
REMARK   74  A    between atoms: _166  and  _168
REMARK   75  A    between atoms: _168  and  _169
REMARK   76  A    between atoms: _168  and  _171
REMARK   77  A    between atoms: _171  and  _172
REMARK   78  A    between atoms: _175  and  _177
REMARK   79  A    between atoms: _177  and  _178
REMARK   80  A    between atoms: _180  and  _182
REMARK   81  A    between atoms: _182  and  _183
REMARK   82  A    between atoms: _182  and  _185
REMARK   83  A    between atoms: _185  and  _186
REMARK   84  A    between atoms: _189  and  _191
REMARK   85  A    between atoms: _191  and  _192
REMARK   86  A    between atoms: _194  and  _196
REMARK   87  A    between atoms: _196  and  _197
REMARK   88  A    between atoms: _196  and  _199
REMARK   89  A    between atoms: _199  and  _200
REMARK   90  A    between atoms: _200  and  _201
REMARK   91  A    between atoms: _203  and  _205
REMARK   92  A    between atoms: _205  and  _206
REMARK   93  A    between atoms: _205  and  _208
REMARK   94  A    between atoms: _208  and  _209
REMARK   95  A    between atoms: _212  and  _214
REMARK   96  A    between atoms: _214  and  _215
REMARK   97  A    between atoms: _214  and  _217
REMARK   98  A    between atoms: _217  and  _218
REMARK   99  A    between atoms: _221  and  _223
REMARK  100  A    between atoms: _223  and  _224
REMARK  101  A    between atoms: _223  and  _226
REMARK  102  A    between atoms: _226  and  _227
REMARK  103  A    between atoms: _230  and  _232
REMARK  104  A    between atoms: _232  and  _233
REMARK  105  A    between atoms: _232  and  _235
REMARK  106  A    between atoms: _235  and  _236
REMARK  107  A    between atoms: _241  and  _243
REMARK  108  A    between atoms: _243  and  _244
REMARK  109  A    between atoms: _243  and  _246
REMARK  110  A    between atoms: _246  and  _247
REMARK  111  A    between atoms: _252  and  _254
REMARK  112  A    between atoms: _254  and  _255
REMARK  113  A    between atoms: _254  and  _257
REMARK  114  A    between atoms: _257  and  _258
REMARK  115  A    between atoms: _261  and  _263
REMARK  116  A    between atoms: _263  and  _264
REMARK  117  A    between atoms: _263  and  _266
REMARK  118  A    between atoms: _266  and  _267
REMARK  119  A    between atoms: _270  and  _272
REMARK  120  A    between atoms: _272  and  _273
REMARK  121  A    between atoms: _272  and  _275
REMARK  122  A    between atoms: _275  and  _276
REMARK  123  A    between atoms: _279  and  _281
REMARK  124  A    between atoms: _281  and  _282
REMARK  125  A    between atoms: _285  and  _287
REMARK  126  A    between atoms: _287  and  _288
REMARK  127  A    between atoms: _287  and  _290
REMARK  128  A    between atoms: _290  and  _291
REMARK  129  A    between atoms: _291  and  _292
REMARK  130  A    between atoms: _292  and  _293
REMARK  131  A    between atoms: _293  and  _294
REMARK  132  A    between atoms: _298  and  _300
REMARK  133  A    between atoms: _300  and  _301
REMARK  134  A    between atoms: _300  and  _303
REMARK  135  A    between atoms: _303  and  _304
REMARK  136  A    between atoms: _306  and  _308
REMARK  137  A    between atoms: _308  and  _309
REMARK  138  A    between atoms: _311  and  _313
REMARK  139  A    between atoms: _313  and  _314
REMARK  140  A    between atoms: _313  and  _316
REMARK  141  A    between atoms: _316  and  _317
REMARK  142  A    between atoms: _323  and  _325
REMARK  143  A    between atoms: _325  and  _326
REMARK  144  A    between atoms: _328  and  _330
REMARK  145  A    between atoms: _330  and  _331
REMARK  146  A    between atoms: _330  and  _333
REMARK  147  A    between atoms: _336  and  _338
REMARK  148  A    between atoms: _338  and  _339
REMARK  149  A    between atoms: _341  and  _343
REMARK  150  A    between atoms: _343  and  _344
REMARK  151  A    between atoms: _343  and  _346
REMARK  152  A    between atoms: _346  and  _347
REMARK  153  A    between atoms: _353  and  _355
REMARK  154  A    between atoms: _355  and  _356
REMARK  155  A    between atoms: _355  and  _358
REMARK  156  A    between atoms: _358  and  _359
REMARK  157  A    between atoms: _364  and  _365
REMARK  158  A    between atoms: _367  and  _369
REMARK  159  A    between atoms: _369  and  _370
REMARK  160  A    between atoms: _373  and  _375
REMARK  161  A    between atoms: _375  and  _376
REMARK  162  A    between atoms: _375  and  _378
REMARK  163  A    between atoms: _378  and  _379
REMARK  164  A    between atoms: _384  and  _385
REMARK  165  A    between atoms: _387  and  _389
REMARK  166  A    between atoms: _389  and  _390
REMARK  167  A    between atoms: _389  and  _392
REMARK  168  A    between atoms: _395  and  _397
REMARK  169  A    between atoms: _397  and  _398
REMARK  170  A    between atoms: _397  and  _400
REMARK  171  A    between atoms: _400  and  _401
REMARK  172  A    between atoms: _404  and  _406
REMARK  173  A    between atoms: _406  and  _407
REMARK  174  A    between atoms: _406  and  _409
REMARK  175  A    between atoms: _412  and  _414
REMARK  176  A    between atoms: _414  and  _415
REMARK  177  A    between atoms: _414  and  _417
REMARK  178  A    between atoms: _417  and  _418
REMARK  179  A    between atoms: _421  and  _423
REMARK  180  A    between atoms: _423  and  _424
REMARK  181  A    between atoms: _423  and  _426
REMARK  182  A    between atoms: _426  and  _427
REMARK  183  A    between atoms: _430  and  _432
REMARK  184  A    between atoms: _432  and  _433
REMARK  185  A    between atoms: _432  and  _435
REMARK  186  A    between atoms: _435  and  _436
REMARK  187  A    between atoms: _436  and  _437
REMARK  188  A    between atoms: _437  and  _438
REMARK  189  A    between atoms: _438  and  _439
REMARK  190  A    between atoms: _443  and  _445
REMARK  191  A    between atoms: _445  and  _446
REMARK  192  A    between atoms: _445  and  _448
REMARK  193  A    between atoms: _448  and  _449
REMARK  194  A    between atoms: _454  and  _456
REMARK  195  A    between atoms: _456  and  _457
REMARK  196  A    between atoms: _456  and  _459
REMARK  197  A    between atoms: _459  and  _460
REMARK  198  A    between atoms: _470  and  _472
REMARK  199  A    between atoms: _472  and  _473
REMARK  200  A    between atoms: _472  and  _475
REMARK  201  A    between atoms: _475  and  _476
REMARK  202  A    between atoms: _476  and  _477
REMARK  203  A    between atoms: _479  and  _481
REMARK  204  A    between atoms: _481  and  _482
REMARK  205  A    between atoms: _481  and  _484
REMARK  206  A    between atoms: _484  and  _485
REMARK  207  A    between atoms: _485  and  _486
REMARK  208  A    between atoms: _486  and  _487
REMARK  209  A    between atoms: _496  and  _498
REMARK  210  A    between atoms: _498  and  _499
REMARK  211  A    between atoms: _501  and  _503
REMARK  212  A    between atoms: _503  and  _504
REMARK  213  A    between atoms: _503  and  _506
REMARK  214  A    between atoms: _506  and  _507
REMARK  215  A    between atoms: _510  and  _512
REMARK  216  A    between atoms: _512  and  _513
REMARK  217  A    between atoms: _512  and  _515
REMARK  218  A    between atoms: _515  and  _516
REMARK  219  A    between atoms: _516  and  _517
REMARK  220  A    between atoms: _517  and  _518
REMARK  221  A    between atoms: _518  and  _519
REMARK  222  A    between atoms: _523  and  _525
REMARK  223  A    between atoms: _525  and  _526
REMARK  224  A    between atoms: _525  and  _528
REMARK  225  A    between atoms: _531  and  _533
REMARK  226  A    between atoms: _533  and  _534
REMARK  227  A    between atoms: _533  and  _536
REMARK  228  A    between atoms: _536  and  _537
REMARK  229  A    between atoms: _540  and  _542
REMARK  230  A    between atoms: _542  and  _543
REMARK  231  A    between atoms: _542  and  _545
REMARK  232  A    between atoms: _545  and  _546
REMARK                            x       y       z     vdW  Elec       q    Type
REMARK                         _______ _______ _______ _____ _____    ______ ____
ROOT
ATOM      1  O   HOH     1       0.898  40.245  -2.730  0.00  0.00    +0.000 OA
ENDROOT
TORSDOF 0
REMARK  Name = ../refined-set-2016/1yc1/1yc1_pocket.pdb
REMARK  232 active torsions:
REMARK  status: ('A' for Active; 'I' for Inactive)
REMARK    1  A    between atoms: _1  and  _3
REMARK    2  A    between atoms: _3  and  _4
REMARK    3  A    between atoms: _3  and  _6
REMARK    4  A    between atoms: _6  and  _7
REMARK    5  A    between atoms: _13  and  _15
REMARK    6  A    between atoms: _15  and  _16
REMARK    7  A    between atoms: _15  and  _18
REMARK    8  A    between atoms: _18  and  _19
REMARK    9  A    between atoms: _19  and  _20
REMARK   10  A    between atoms: _23  and  _25
REMARK   11  A    between atoms: _25  and  _26
REMARK   12  A    between atoms: _25  and  _28
REMARK   13  A    between atoms: _28  and  _29
REMARK   14  A    between atoms: _32  and  _34
REMARK   15  A    between atoms: _34  and  _35
REMARK   16  A    between atoms: _34  and  _37
REMARK   17  A    between atoms: _37  and  _38
REMARK   18  A    between atoms: _41  and  _43
REMARK   19  A    between atoms: _43  and  _44
REMARK   20  A    between atoms: _43  and  _46
REMARK   21  A    between atoms: _46  and  _47
REMARK   22  A    between atoms: _49  and  _51
REMARK   23  A    between atoms: _51  and  _52
REMARK   24  A    between atoms: _51  and  _54
REMARK   25  A    between atoms: _54  and  _55
REMARK   26  A    between atoms: _60  and  _62
REMARK   27  A    between atoms: _62  and  _63
REMARK   28  A    between atoms: _62  and  _65
REMARK   29  A    between atoms: _65  and  _66
REMARK   30  A    between atoms: _68  and  _70
REMARK   31  A    between atoms: _70  and  _71
REMARK   32  A    between atoms: _70  and  _73
REMARK   33  A    between atoms: _73  and  _74
REMARK   34  A    between atoms: _76  and  _78
REMARK   35  A    between atoms: _78  and  _79
REMARK   36  A    between atoms: _78  and  _81
REMARK   37  A    between atoms: _81  and  _82
REMARK   38  A    between atoms: _85  and  _87
REMARK   39  A    between atoms: _87  and  _88
REMARK   40  A    between atoms: _91  and  _93
REMARK   41  A    between atoms: _93  and  _94
REMARK   42  A    between atoms: _93  and  _96
REMARK   43  A    between atoms: _96  and  _97
REMARK   44  A    between atoms: _100  and  _102
REMARK   45  A    between atoms: _102  and  _103
REMARK   46  A    between atoms: _102  and  _105
REMARK   47  A    between atoms: _105  and  _106
REMARK   48  A    between atoms: _109  and  _111
REMARK   49  A    between atoms: _111  and  _112
REMARK   50  A    between atoms: _111  and  _114
REMARK   51  A    between atoms: _114  and  _115
REMARK   52  A    between atoms: _115  and  _116
REMARK   53  A    between atoms: _116  and  _117
REMARK   54  A    between atoms: _117  and  _118
REMARK   55  A    between atoms: _122  and  _124
REMARK   56  A    between atoms: _124  and  _125
REMARK   57  A    between atoms: _124  and  _127
REMARK   58  A    between atoms: _127  and  _128
REMARK   59  A    between atoms: _131  and  _133
REMARK   60  A    between atoms: _133  and  _134
REMARK   61  A    between atoms: _133  and  _136
REMARK   62  A    between atoms: _136  and  _137
REMARK   63  A    between atoms: _140  and  _142
REMARK   64  A    between atoms: _142  and  _143
REMARK   65  A    between atoms: _142  and  _145
REMARK   66  A    between atoms: _145  and  _146
REMARK   67  A    between atoms: _149  and  _151
REMARK   68  A    between atoms: _151  and  _152
REMARK   69  A    between atoms: _151  and  _154
REMARK   70  A    between atoms: _157  and  _159
REMARK   71  A    between atoms: _159  and  _160
REMARK   72  A    between atoms: _159  and  _162
REMARK   73  A    between atoms: _162  and  _163
REMARK   74  A    between atoms: _166  and  _168
REMARK   75  A    between atoms: _168  and  _169
REMARK   76  A    between atoms: _168  and  _171
REMARK   77  A    between atoms: _171  and  _172
REMARK   78  A    between atoms: _175  and  _177
REMARK   79  A    between atoms: _177  and  _178
REMARK   80  A    between atoms: _180  and  _182
REMARK   81  A    between atoms: _182  and  _183
REMARK   82  A    between atoms: _182  and  _185
REMARK   83  A    between atoms: _185  and  _186
REMARK   84  A    between atoms: _189  and  _191
REMARK   85  A    between atoms: _191  and  _192
REMARK   86  A    between atoms: _194  and  _196
REMARK   87  A    between atoms: _196  and  _197
REMARK   88  A    between atoms: _196  and  _199
REMARK   89  A    between atoms: _199  and  _200
REMARK   90  A    between atoms: _200  and  _201
REMARK   91  A    between atoms: _203  and  _205
REMARK   92  A    between atoms: _205  and  _206
REMARK   93  A    between atoms: _205  and  _208
REMARK   94  A    between atoms: _208  and  _209
REMARK   95  A    between atoms: _212  and  _214
REMARK   96  A    between atoms: _214  and  _215
REMARK   97  A    between atoms: _214  and  _217
REMARK   98  A    between atoms: _217  and  _218
REMARK   99  A    between atoms: _221  and  _223
REMARK  100  A    between atoms: _223  and  _224
REMARK  101  A    between atoms: _223  and  _226
REMARK  102  A    between atoms: _226  and  _227
REMARK  103  A    between atoms: _230  and  _232
REMARK  104  A    between atoms: _232  and  _233
REMARK  105  A    between atoms: _232  and  _235
REMARK  106  A    between atoms: _235  and  _236
REMARK  107  A    between atoms: _241  and  _243
REMARK  108  A    between atoms: _243  and  _244
REMARK  109  A    between atoms: _243  and  _246
REMARK  110  A    between atoms: _246  and  _247
REMARK  111  A    between atoms: _252  and  _254
REMARK  112  A    between atoms: _254  and  _255
REMARK  113  A    between atoms: _254  and  _257
REMARK  114  A    between atoms: _257  and  _258
REMARK  115  A    between atoms: _261  and  _263
REMARK  116  A    between atoms: _263  and  _264
REMARK  117  A    between atoms: _263  and  _266
REMARK  118  A    between atoms: _266  and  _267
REMARK  119  A    between atoms: _270  and  _272
REMARK  120  A    between atoms: _272  and  _273
REMARK  121  A    between atoms: _272  and  _275
REMARK  122  A    between atoms: _275  and  _276
REMARK  123  A    between atoms: _279  and  _281
REMARK  124  A    between atoms: _281  and  _282
REMARK  125  A    between atoms: _285  and  _287
REMARK  126  A    between atoms: _287  and  _288
REMARK  127  A    between atoms: _287  and  _290
REMARK  128  A    between atoms: _290  and  _291
REMARK  129  A    between atoms: _291  and  _292
REMARK  130  A    between atoms: _292  and  _293
REMARK  131  A    between atoms: _293  and  _294
REMARK  132  A    between atoms: _298  and  _300
REMARK  133  A    between atoms: _300  and  _301
REMARK  134  A    between atoms: _300  and  _303
REMARK  135  A    between atoms: _303  and  _304
REMARK  136  A    between atoms: _306  and  _308
REMARK  137  A    between atoms: _308  and  _309
REMARK  138  A    between atoms: _311  and  _313
REMARK  139  A    between atoms: _313  and  _314
REMARK  140  A    between atoms: _313  and  _316
REMARK  141  A    between atoms: _316  and  _317
REMARK  142  A    between atoms: _323  and  _325
REMARK  143  A    between atoms: _325  and  _326
REMARK  144  A    between atoms: _328  and  _330
REMARK  145  A    between atoms: _330  and  _331
REMARK  146  A    between atoms: _330  and  _333
REMARK  147  A    between atoms: _336  and  _338
REMARK  148  A    between atoms: _338  and  _339
REMARK  149  A    between atoms: _341  and  _343
REMARK  150  A    between atoms: _343  and  _344
REMARK  151  A    between atoms: _343  and  _346
REMARK  152  A    between atoms: _346  and  _347
REMARK  153  A    between atoms: _353  and  _355
REMARK  154  A    between atoms: _355  and  _356
REMARK  155  A    between atoms: _355  and  _358
REMARK  156  A    between atoms: _358  and  _359
REMARK  157  A    between atoms: _364  and  _365
REMARK  158  A    between atoms: _367  and  _369
REMARK  159  A    between atoms: _369  and  _370
REMARK  160  A    between atoms: _373  and  _375
REMARK  161  A    between atoms: _375  and  _376
REMARK  162  A    between atoms: _375  and  _378
REMARK  163  A    between atoms: _378  and  _379
REMARK  164  A    between atoms: _384  and  _385
REMARK  165  A    between atoms: _387  and  _389
REMARK  166  A    between atoms: _389  and  _390
REMARK  167  A    between atoms: _389  and  _392
REMARK  168  A    between atoms: _395  and  _397
REMARK  169  A    between atoms: _397  and  _398
REMARK  170  A    between atoms: _397  and  _400
REMARK  171  A    between atoms: _400  and  _401
REMARK  172  A    between atoms: _404  and  _406
REMARK  173  A    between atoms: _406  and  _407
REMARK  174  A    between atoms: _406  and  _409
REMARK  175  A    between atoms: _412  and  _414
REMARK  176  A    between atoms: _414  and  _415
REMARK  177  A    between atoms: _414  and  _417
REMARK  178  A    between atoms: _417  and  _418
REMARK  179  A    between atoms: _421  and  _423
REMARK  180  A    between atoms: _423  and  _424
REMARK  181  A    between atoms: _423  and  _426
REMARK  182  A    between atoms: _426  and  _427
REMARK  183  A    between atoms: _430  and  _432
REMARK  184  A    between atoms: _432  and  _433
REMARK  185  A    between atoms: _432  and  _435
REMARK  186  A    between atoms: _435  and  _436
REMARK  187  A    between atoms: _436  and  _437
REMARK  188  A    between atoms: _437  and  _438
REMARK  189  A    between atoms: _438  and  _439
REMARK  190  A    between atoms: _443  and  _445
REMARK  191  A    between atoms: _445  and  _446
REMARK  192  A    between atoms: _445  and  _448
REMARK  193  A    between atoms: _448  and  _449
REMARK  194  A    between atoms: _454  and  _456
REMARK  195  A    between atoms: _456  and  _457
REMARK  196  A    between atoms: _456  and  _459
REMARK  197  A    between atoms: _459  and  _460
REMARK  198  A    between atoms: _470  and  _472
REMARK  199  A    between atoms: _472  and  _473
REMARK  200  A    between atoms: _472  and  _475
REMARK  201  A    between atoms: _475  and  _476
REMARK  202  A    between atoms: _476  and  _477
REMARK  203  A    between atoms: _479  and  _481
REMARK  204  A    between atoms: _481  and  _482
REMARK  205  A    between atoms: _481  and  _484
REMARK  206  A    between atoms: _484  and  _485
REMARK  207  A    between atoms: _485  and  _486
REMARK  208  A    between atoms: _486  and  _487
REMARK  209  A    between atoms: _496  and  _498
REMARK  210  A    between atoms: _498  and  _499
REMARK  211  A    between atoms: _501  and  _503
REMARK  212  A    between atoms: _503  and  _504
REMARK  213  A    between atoms: _503  and  _506
REMARK  214  A    between atoms: _506  and  _507
REMARK  215  A    between atoms: _510  and  _512
REMARK  216  A    between atoms: _512  and  _513
REMARK  217  A    between atoms: _512  and  _515
REMARK  218  A    between atoms: _515  and  _516
REMARK  219  A    between atoms: _516  and  _517
REMARK  220  A    between atoms: _517  and  _518
REMARK  221  A    between atoms: _518  and  _519
REMARK  222  A    between atoms: _523  and  _525
REMARK  223  A    between atoms: _525  and  _526
REMARK  224  A    between atoms: _525  and  _528
REMARK  225  A    between atoms: _531  and  _533
REMARK  226  A    between atoms: _533  and  _534
REMARK  227  A    between atoms: _533  and  _536
REMARK  228  A    between atoms: _536  and  _537
REMARK  229  A    between atoms: _540  and  _542
REMARK  230  A    between atoms: _542  and  _543
REMARK  231  A    between atoms: _542  and  _545
REMARK  232  A    between atoms: _545  and  _546
REMARK                            x       y       z     vdW  Elec       q    Type
REMARK                         _______ _______ _______ _____ _____    ______ ____
ROOT
ATOM      1  O   HOH     1       3.630  35.765  -9.067  0.00  0.00    +0.000 OA
ENDROOT
TORSDOF 0
REMARK  Name = ../refined-set-2016/1yc1/1yc1_pocket.pdb
REMARK  232 active torsions:
REMARK  status: ('A' for Active; 'I' for Inactive)
REMARK    1  A    between atoms: _1  and  _3
REMARK    2  A    between atoms: _3  and  _4
REMARK    3  A    between atoms: _3  and  _6
REMARK    4  A    between atoms: _6  and  _7
REMARK    5  A    between atoms: _13  and  _15
REMARK    6  A    between atoms: _15  and  _16
REMARK    7  A    between atoms: _15  and  _18
REMARK    8  A    between atoms: _18  and  _19
REMARK    9  A    between atoms: _19  and  _20
REMARK   10  A    between atoms: _23  and  _25
REMARK   11  A    between atoms: _25  and  _26
REMARK   12  A    between atoms: _25  and  _28
REMARK   13  A    between atoms: _28  and  _29
REMARK   14  A    between atoms: _32  and  _34
REMARK   15  A    between atoms: _34  and  _35
REMARK   16  A    between atoms: _34  and  _37
REMARK   17  A    between atoms: _37  and  _38
REMARK   18  A    between atoms: _41  and  _43
REMARK   19  A    between atoms: _43  and  _44
REMARK   20  A    between atoms: _43  and  _46
REMARK   21  A    between atoms: _46  and  _47
REMARK   22  A    between atoms: _49  and  _51
REMARK   23  A    between atoms: _51  and  _52
REMARK   24  A    between atoms: _51  and  _54
REMARK   25  A    between atoms: _54  and  _55
REMARK   26  A    between atoms: _60  and  _62
REMARK   27  A    between atoms: _62  and  _63
REMARK   28  A    between atoms: _62  and  _65
REMARK   29  A    between atoms: _65  and  _66
REMARK   30  A    between atoms: _68  and  _70
REMARK   31  A    between atoms: _70  and  _71
REMARK   32  A    between atoms: _70  and  _73
REMARK   33  A    between atoms: _73  and  _74
REMARK   34  A    between atoms: _76  and  _78
REMARK   35  A    between atoms: _78  and  _79
REMARK   36  A    between atoms: _78  and  _81
REMARK   37  A    between atoms: _81  and  _82
REMARK   38  A    between atoms: _85  and  _87
REMARK   39  A    between atoms: _87  and  _88
REMARK   40  A    between atoms: _91  and  _93
REMARK   41  A    between atoms: _93  and  _94
REMARK   42  A    between atoms: _93  and  _96
REMARK   43  A    between atoms: _96  and  _97
REMARK   44  A    between atoms: _100  and  _102
REMARK   45  A    between atoms: _102  and  _103
REMARK   46  A    between atoms: _102  and  _105
REMARK   47  A    between atoms: _105  and  _106
REMARK   48  A    between atoms: _109  and  _111
REMARK   49  A    between atoms: _111  and  _112
REMARK   50  A    between atoms: _111  and  _114
REMARK   51  A    between atoms: _114  and  _115
REMARK   52  A    between atoms: _115  and  _116
REMARK   53  A    between atoms: _116  and  _117
REMARK   54  A    between atoms: _117  and  _118
REMARK   55  A    between atoms: _122  and  _124
REMARK   56  A    between atoms: _124  and  _125
REMARK   57  A    between atoms: _124  and  _127
REMARK   58  A    between atoms: _127  and  _128
REMARK   59  A    between atoms: _131  and  _133
REMARK   60  A    between atoms: _133  and  _134
REMARK   61  A    between atoms: _133  and  _136
REMARK   62  A    between atoms: _136  and  _137
REMARK   63  A    between atoms: _140  and  _142
REMARK   64  A    between atoms: _142  and  _143
REMARK   65  A    between atoms: _142  and  _145
REMARK   66  A    between atoms: _145  and  _146
REMARK   67  A    between atoms: _149  and  _151
REMARK   68  A    between atoms: _151  and  _152
REMARK   69  A    between atoms: _151  and  _154
REMARK   70  A    between atoms: _157  and  _159
REMARK   71  A    between atoms: _159  and  _160
REMARK   72  A    between atoms: _159  and  _162
REMARK   73  A    between atoms: _162  and  _163
REMARK   74  A    between atoms: _166  and  _168
REMARK   75  A    between atoms: _168  and  _169
REMARK   76  A    between atoms: _168  and  _171
REMARK   77  A    between atoms: _171  and  _172
REMARK   78  A    between atoms: _175  and  _177
REMARK   79  A    between atoms: _177  and  _178
REMARK   80  A    between atoms: _180  and  _182
REMARK   81  A    between atoms: _182  and  _183
REMARK   82  A    between atoms: _182  and  _185
REMARK   83  A    between atoms: _185  and  _186
REMARK   84  A    between atoms: _189  and  _191
REMARK   85  A    between atoms: _191  and  _192
REMARK   86  A    between atoms: _194  and  _196
REMARK   87  A    between atoms: _196  and  _197
REMARK   88  A    between atoms: _196  and  _199
REMARK   89  A    between atoms: _199  and  _200
REMARK   90  A    between atoms: _200  and  _201
REMARK   91  A    between atoms: _203  and  _205
REMARK   92  A    between atoms: _205  and  _206
REMARK   93  A    between atoms: _205  and  _208
REMARK   94  A    between atoms: _208  and  _209
REMARK   95  A    between atoms: _212  and  _214
REMARK   96  A    between atoms: _214  and  _215
REMARK   97  A    between atoms: _214  and  _217
REMARK   98  A    between atoms: _217  and  _218
REMARK   99  A    between atoms: _221  and  _223
REMARK  100  A    between atoms: _223  and  _224
REMARK  101  A    between atoms: _223  and  _226
REMARK  102  A    between atoms: _226  and  _227
REMARK  103  A    between atoms: _230  and  _232
REMARK  104  A    between atoms: _232  and  _233
REMARK  105  A    between atoms: _232  and  _235
REMARK  106  A    between atoms: _235  and  _236
REMARK  107  A    between atoms: _241  and  _243
REMARK  108  A    between atoms: _243  and  _244
REMARK  109  A    between atoms: _243  and  _246
REMARK  110  A    between atoms: _246  and  _247
REMARK  111  A    between atoms: _252  and  _254
REMARK  112  A    between atoms: _254  and  _255
REMARK  113  A    between atoms: _254  and  _257
REMARK  114  A    between atoms: _257  and  _258
REMARK  115  A    between atoms: _261  and  _263
REMARK  116  A    between atoms: _263  and  _264
REMARK  117  A    between atoms: _263  and  _266
REMARK  118  A    between atoms: _266  and  _267
REMARK  119  A    between atoms: _270  and  _272
REMARK  120  A    between atoms: _272  and  _273
REMARK  121  A    between atoms: _272  and  _275
REMARK  122  A    between atoms: _275  and  _276
REMARK  123  A    between atoms: _279  and  _281
REMARK  124  A    between atoms: _281  and  _282
REMARK  125  A    between atoms: _285  and  _287
REMARK  126  A    between atoms: _287  and  _288
REMARK  127  A    between atoms: _287  and  _290
REMARK  128  A    between atoms: _290  and  _291
REMARK  129  A    between atoms: _291  and  _292
REMARK  130  A    between atoms: _292  and  _293
REMARK  131  A    between atoms: _293  and  _294
REMARK  132  A    between atoms: _298  and  _300
REMARK  133  A    between atoms: _300  and  _301
REMARK  134  A    between atoms: _300  and  _303
REMARK  135  A    between atoms: _303  and  _304
REMARK  136  A    between atoms: _306  and  _308
REMARK  137  A    between atoms: _308  and  _309
REMARK  138  A    between atoms: _311  and  _313
REMARK  139  A    between atoms: _313  and  _314
REMARK  140  A    between atoms: _313  and  _316
REMARK  141  A    between atoms: _316  and  _317
REMARK  142  A    between atoms: _323  and  _325
REMARK  143  A    between atoms: _325  and  _326
REMARK  144  A    between atoms: _328  and  _330
REMARK  145  A    between atoms: _330  and  _331
REMARK  146  A    between atoms: _330  and  _333
REMARK  147  A    between atoms: _336  and  _338
REMARK  148  A    between atoms: _338  and  _339
REMARK  149  A    between atoms: _341  and  _343
REMARK  150  A    between atoms: _343  and  _344
REMARK  151  A    between atoms: _343  and  _346
REMARK  152  A    between atoms: _346  and  _347
REMARK  153  A    between atoms: _353  and  _355
REMARK  154  A    between atoms: _355  and  _356
REMARK  155  A    between atoms: _355  and  _358
REMARK  156  A    between atoms: _358  and  _359
REMARK  157  A    between atoms: _364  and  _365
REMARK  158  A    between atoms: _367  and  _369
REMARK  159  A    between atoms: _369  and  _370
REMARK  160  A    between atoms: _373  and  _375
REMARK  161  A    between atoms: _375  and  _376
REMARK  162  A    between atoms: _375  and  _378
REMARK  163  A    between atoms: _378  and  _379
REMARK  164  A    between atoms: _384  and  _385
REMARK  165  A    between atoms: _387  and  _389
REMARK  166  A    between atoms: _389  and  _390
REMARK  167  A    between atoms: _389  and  _392
REMARK  168  A    between atoms: _395  and  _397
REMARK  169  A    between atoms: _397  and  _398
REMARK  170  A    between atoms: _397  and  _400
REMARK  171  A    between atoms: _400  and  _401
REMARK  172  A    between atoms: _404  and  _406
REMARK  173  A    between atoms: _406  and  _407
REMARK  174  A    between atoms: _406  and  _409
REMARK  175  A    between atoms: _412  and  _414
REMARK  176  A    between atoms: _414  and  _415
REMARK  177  A    between atoms: _414  and  _417
REMARK  178  A    between atoms: _417  and  _418
REMARK  179  A    between atoms: _421  and  _423
REMARK  180  A    between atoms: _423  and  _424
REMARK  181  A    between atoms: _423  and  _426
REMARK  182  A    between atoms: _426  and  _427
REMARK  183  A    between atoms: _430  and  _432
REMARK  184  A    between atoms: _432  and  _433
REMARK  185  A    between atoms: _432  and  _435
REMARK  186  A    between atoms: _435  and  _436
REMARK  187  A    between atoms: _436  and  _437
REMARK  188  A    between atoms: _437  and  _438
REMARK  189  A    between atoms: _438  and  _439
REMARK  190  A    between atoms: _443  and  _445
REMARK  191  A    between atoms: _445  and  _446
REMARK  192  A    between atoms: _445  and  _448
REMARK  193  A    between atoms: _448  and  _449
REMARK  194  A    between atoms: _454  and  _456
REMARK  195  A    between atoms: _456  and  _457
REMARK  196  A    between atoms: _456  and  _459
REMARK  197  A    between atoms: _459  and  _460
REMARK  198  A    between atoms: _470  and  _472
REMARK  199  A    between atoms: _472  and  _473
REMARK  200  A    between atoms: _472  and  _475
REMARK  201  A    between atoms: _475  and  _476
REMARK  202  A    between atoms: _476  and  _477
REMARK  203  A    between atoms: _479  and  _481
REMARK  204  A    between atoms: _481  and  _482
REMARK  205  A    between atoms: _481  and  _484
REMARK  206  A    between atoms: _484  and  _485
REMARK  207  A    between atoms: _485  and  _486
REMARK  208  A    between atoms: _486  and  _487
REMARK  209  A    between atoms: _496  and  _498
REMARK  210  A    between atoms: _498  and  _499
REMARK  211  A    between atoms: _501  and  _503
REMARK  212  A    between atoms: _503  and  _504
REMARK  213  A    between atoms: _503  and  _506
REMARK  214  A    between atoms: _506  and  _507
REMARK  215  A    between atoms: _510  and  _512
REMARK  216  A    between atoms: _512  and  _513
REMARK  217  A    between atoms: _512  and  _515
REMARK  218  A    between atoms: _515  and  _516
REMARK  219  A    between atoms: _516  and  _517
REMARK  220  A    between atoms: _517  and  _518
REMARK  221  A    between atoms: _518  and  _519
REMARK  222  A    between atoms: _523  and  _525
REMARK  223  A    between atoms: _525  and  _526
REMARK  224  A    between atoms: _525  and  _528
REMARK  225  A    between atoms: _531  and  _533
REMARK  226  A    between atoms: _533  and  _534
REMARK  227  A    between atoms: _533  and  _536
REMARK  228  A    between atoms: _536  and  _537
REMARK  229  A    between atoms: _540  and  _542
REMARK  230  A    between atoms: _542  and  _543
REMARK  231  A    between atoms: _542  and  _545
REMARK  232  A    between atoms: _545  and  _546
REMARK                            x       y       z     vdW  Elec       q    Type
REMARK                         _______ _______ _______ _____ _____    ______ ____
ROOT
ATOM      1  O   HOH     1       3.039  39.109   2.970  0.00  0.00    +0.000 OA
ENDROOT
TORSDOF 0
REMARK  Name = ../refined-set-2016/1yc1/1yc1_pocket.pdb
REMARK  232 active torsions:
REMARK  status: ('A' for Active; 'I' for Inactive)
REMARK    1  A    between atoms: _1  and  _3
REMARK    2  A    between atoms: _3  and  _4
REMARK    3  A    between atoms: _3  and  _6
REMARK    4  A    between atoms: _6  and  _7
REMARK    5  A    between atoms: _13  and  _15
REMARK    6  A    between atoms: _15  and  _16
REMARK    7  A    between atoms: _15  and  _18
REMARK    8  A    between atoms: _18  and  _19
REMARK    9  A    between atoms: _19  and  _20
REMARK   10  A    between atoms: _23  and  _25
REMARK   11  A    between atoms: _25  and  _26
REMARK   12  A    between atoms: _25  and  _28
REMARK   13  A    between atoms: _28  and  _29
REMARK   14  A    between atoms: _32  and  _34
REMARK   15  A    between atoms: _34  and  _35
REMARK   16  A    between atoms: _34  and  _37
REMARK   17  A    between atoms: _37  and  _38
REMARK   18  A    between atoms: _41  and  _43
REMARK   19  A    between atoms: _43  and  _44
REMARK   20  A    between atoms: _43  and  _46
REMARK   21  A    between atoms: _46  and  _47
REMARK   22  A    between atoms: _49  and  _51
REMARK   23  A    between atoms: _51  and  _52
REMARK   24  A    between atoms: _51  and  _54
REMARK   25  A    between atoms: _54  and  _55
REMARK   26  A    between atoms: _60  and  _62
REMARK   27  A    between atoms: _62  and  _63
REMARK   28  A    between atoms: _62  and  _65
REMARK   29  A    between atoms: _65  and  _66
REMARK   30  A    between atoms: _68  and  _70
REMARK   31  A    between atoms: _70  and  _71
REMARK   32  A    between atoms: _70  and  _73
REMARK   33  A    between atoms: _73  and  _74
REMARK   34  A    between atoms: _76  and  _78
REMARK   35  A    between atoms: _78  and  _79
REMARK   36  A    between atoms: _78  and  _81
REMARK   37  A    between atoms: _81  and  _82
REMARK   38  A    between atoms: _85  and  _87
REMARK   39  A    between atoms: _87  and  _88
REMARK   40  A    between atoms: _91  and  _93
REMARK   41  A    between atoms: _93  and  _94
REMARK   42  A    between atoms: _93  and  _96
REMARK   43  A    between atoms: _96  and  _97
REMARK   44  A    between atoms: _100  and  _102
REMARK   45  A    between atoms: _102  and  _103
REMARK   46  A    between atoms: _102  and  _105
REMARK   47  A    between atoms: _105  and  _106
REMARK   48  A    between atoms: _109  and  _111
REMARK   49  A    between atoms: _111  and  _112
REMARK   50  A    between atoms: _111  and  _114
REMARK   51  A    between atoms: _114  and  _115
REMARK   52  A    between atoms: _115  and  _116
REMARK   53  A    between atoms: _116  and  _117
REMARK   54  A    between atoms: _117  and  _118
REMARK   55  A    between atoms: _122  and  _124
REMARK   56  A    between atoms: _124  and  _125
REMARK   57  A    between atoms: _124  and  _127
REMARK   58  A    between atoms: _127  and  _128
REMARK   59  A    between atoms: _131  and  _133
REMARK   60  A    between atoms: _133  and  _134
REMARK   61  A    between atoms: _133  and  _136
REMARK   62  A    between atoms: _136  and  _137
REMARK   63  A    between atoms: _140  and  _142
REMARK   64  A    between atoms: _142  and  _143
REMARK   65  A    between atoms: _142  and  _145
REMARK   66  A    between atoms: _145  and  _146
REMARK   67  A    between atoms: _149  and  _151
REMARK   68  A    between atoms: _151  and  _152
REMARK   69  A    between atoms: _151  and  _154
REMARK   70  A    between atoms: _157  and  _159
REMARK   71  A    between atoms: _159  and  _160
REMARK   72  A    between atoms: _159  and  _162
REMARK   73  A    between atoms: _162  and  _163
REMARK   74  A    between atoms: _166  and  _168
REMARK   75  A    between atoms: _168  and  _169
REMARK   76  A    between atoms: _168  and  _171
REMARK   77  A    between atoms: _171  and  _172
REMARK   78  A    between atoms: _175  and  _177
REMARK   79  A    between atoms: _177  and  _178
REMARK   80  A    between atoms: _180  and  _182
REMARK   81  A    between atoms: _182  and  _183
REMARK   82  A    between atoms: _182  and  _185
REMARK   83  A    between atoms: _185  and  _186
REMARK   84  A    between atoms: _189  and  _191
REMARK   85  A    between atoms: _191  and  _192
REMARK   86  A    between atoms: _194  and  _196
REMARK   87  A    between atoms: _196  and  _197
REMARK   88  A    between atoms: _196  and  _199
REMARK   89  A    between atoms: _199  and  _200
REMARK   90  A    between atoms: _200  and  _201
REMARK   91  A    between atoms: _203  and  _205
REMARK   92  A    between atoms: _205  and  _206
REMARK   93  A    between atoms: _205  and  _208
REMARK   94  A    between atoms: _208  and  _209
REMARK   95  A    between atoms: _212  and  _214
REMARK   96  A    between atoms: _214  and  _215
REMARK   97  A    between atoms: _214  and  _217
REMARK   98  A    between atoms: _217  and  _218
REMARK   99  A    between atoms: _221  and  _223
REMARK  100  A    between atoms: _223  and  _224
REMARK  101  A    between atoms: _223  and  _226
REMARK  102  A    between atoms: _226  and  _227
REMARK  103  A    between atoms: _230  and  _232
REMARK  104  A    between atoms: _232  and  _233
REMARK  105  A    between atoms: _232  and  _235
REMARK  106  A    between atoms: _235  and  _236
REMARK  107  A    between atoms: _241  and  _243
REMARK  108  A    between atoms: _243  and  _244
REMARK  109  A    between atoms: _243  and  _246
REMARK  110  A    between atoms: _246  and  _247
REMARK  111  A    between atoms: _252  and  _254
REMARK  112  A    between atoms: _254  and  _255
REMARK  113  A    between atoms: _254  and  _257
REMARK  114  A    between atoms: _257  and  _258
REMARK  115  A    between atoms: _261  and  _263
REMARK  116  A    between atoms: _263  and  _264
REMARK  117  A    between atoms: _263  and  _266
REMARK  118  A    between atoms: _266  and  _267
REMARK  119  A    between atoms: _270  and  _272
REMARK  120  A    between atoms: _272  and  _273
REMARK  121  A    between atoms: _272  and  _275
REMARK  122  A    between atoms: _275  and  _276
REMARK  123  A    between atoms: _279  and  _281
REMARK  124  A    between atoms: _281  and  _282
REMARK  125  A    between atoms: _285  and  _287
REMARK  126  A    between atoms: _287  and  _288
REMARK  127  A    between atoms: _287  and  _290
REMARK  128  A    between atoms: _290  and  _291
REMARK  129  A    between atoms: _291  and  _292
REMARK  130  A    between atoms: _292  and  _293
REMARK  131  A    between atoms: _293  and  _294
REMARK  132  A    between atoms: _298  and  _300
REMARK  133  A    between atoms: _300  and  _301
REMARK  134  A    between atoms: _300  and  _303
REMARK  135  A    between atoms: _303  and  _304
REMARK  136  A    between atoms: _306  and  _308
REMARK  137  A    between atoms: _308  and  _309
REMARK  138  A    between atoms: _311  and  _313
REMARK  139  A    between atoms: _313  and  _314
REMARK  140  A    between atoms: _313  and  _316
REMARK  141  A    between atoms: _316  and  _317
REMARK  142  A    between atoms: _323  and  _325
REMARK  143  A    between atoms: _325  and  _326
REMARK  144  A    between atoms: _328  and  _330
REMARK  145  A    between atoms: _330  and  _331
REMARK  146  A    between atoms: _330  and  _333
REMARK  147  A    between atoms: _336  and  _338
REMARK  148  A    between atoms: _338  and  _339
REMARK  149  A    between atoms: _341  and  _343
REMARK  150  A    between atoms: _343  and  _344
REMARK  151  A    between atoms: _343  and  _346
REMARK  152  A    between atoms: _346  and  _347
REMARK  153  A    between atoms: _353  and  _355
REMARK  154  A    between atoms: _355  and  _356
REMARK  155  A    between atoms: _355  and  _358
REMARK  156  A    between atoms: _358  and  _359
REMARK  157  A    between atoms: _364  and  _365
REMARK  158  A    between atoms: _367  and  _369
REMARK  159  A    between atoms: _369  and  _370
REMARK  160  A    between atoms: _373  and  _375
REMARK  161  A    between atoms: _375  and  _376
REMARK  162  A    between atoms: _375  and  _378
REMARK  163  A    between atoms: _378  and  _379
REMARK  164  A    between atoms: _384  and  _385
REMARK  165  A    between atoms: _387  and  _389
REMARK  166  A    between atoms: _389  and  _390
REMARK  167  A    between atoms: _389  and  _392
REMARK  168  A    between atoms: _395  and  _397
REMARK  169  A    between atoms: _397  and  _398
REMARK  170  A    between atoms: _397  and  _400
REMARK  171  A    between atoms: _400  and  _401
REMARK  172  A    between atoms: _404  and  _406
REMARK  173  A    between atoms: _406  and  _407
REMARK  174  A    between atoms: _406  and  _409
REMARK  175  A    between atoms: _412  and  _414
REMARK  176  A    between atoms: _414  and  _415
REMARK  177  A    between atoms: _414  and  _417
REMARK  178  A    between atoms: _417  and  _418
REMARK  179  A    between atoms: _421  and  _423
REMARK  180  A    between atoms: _423  and  _424
REMARK  181  A    between atoms: _423  and  _426
REMARK  182  A    between atoms: _426  and  _427
REMARK  183  A    between atoms: _430  and  _432
REMARK  184  A    between atoms: _432  and  _433
REMARK  185  A    between atoms: _432  and  _435
REMARK  186  A    between atoms: _435  and  _436
REMARK  187  A    between atoms: _436  and  _437
REMARK  188  A    between atoms: _437  and  _438
REMARK  189  A    between atoms: _438  and  _439
REMARK  190  A    between atoms: _443  and  _445
REMARK  191  A    between atoms: _445  and  _446
REMARK  192  A    between atoms: _445  and  _448
REMARK  193  A    between atoms: _448  and  _449
REMARK  194  A    between atoms: _454  and  _456
REMARK  195  A    between atoms: _456  and  _457
REMARK  196  A    between atoms: _456  and  _459
REMARK  197  A    between atoms: _459  and  _460
REMARK  198  A    between atoms: _470  and  _472
REMARK  199  A    between atoms: _472  and  _473
REMARK  200  A    between atoms: _472  and  _475
REMARK  201  A    between atoms: _475  and  _476
REMARK  202  A    between atoms: _476  and  _477
REMARK  203  A    between atoms: _479  and  _481
REMARK  204  A    between atoms: _481  and  _482
REMARK  205  A    between atoms: _481  and  _484
REMARK  206  A    between atoms: _484  and  _485
REMARK  207  A    between atoms: _485  and  _486
REMARK  208  A    between atoms: _486  and  _487
REMARK  209  A    between atoms: _496  and  _498
REMARK  210  A    between atoms: _498  and  _499
REMARK  211  A    between atoms: _501  and  _503
REMARK  212  A    between atoms: _503  and  _504
REMARK  213  A    between atoms: _503  and  _506
REMARK  214  A    between atoms: _506  and  _507
REMARK  215  A    between atoms: _510  and  _512
REMARK  216  A    between atoms: _512  and  _513
REMARK  217  A    between atoms: _512  and  _515
REMARK  218  A    between atoms: _515  and  _516
REMARK  219  A    between atoms: _516  and  _517
REMARK  220  A    between atoms: _517  and  _518
REMARK  221  A    between atoms: _518  and  _519
REMARK  222  A    between atoms: _523  and  _525
REMARK  223  A    between atoms: _525  and  _526
REMARK  224  A    between atoms: _525  and  _528
REMARK  225  A    between atoms: _531  and  _533
REMARK  226  A    between atoms: _533  and  _534
REMARK  227  A    between atoms: _533  and  _536
REMARK  228  A    between atoms: _536  and  _537
REMARK  229  A    between atoms: _540  and  _542
REMARK  230  A    between atoms: _542  and  _543
REMARK  231  A    between atoms: _542  and  _545
REMARK  232  A    between atoms: _545  and  _546
REMARK                            x       y       z     vdW  Elec       q    Type
REMARK                         _______ _______ _______ _____ _____    ______ ____
ROOT
ATOM      1  O   HOH     1       7.811  36.320  -1.613  0.00  0.00    +0.000 OA
ENDROOT
TORSDOF 0
REMARK  Name = ../refined-set-2016/1yc1/1yc1_pocket.pdb
REMARK  232 active torsions:
REMARK  status: ('A' for Active; 'I' for Inactive)
REMARK    1  A    between atoms: _1  and  _3
REMARK    2  A    between atoms: _3  and  _4
REMARK    3  A    between atoms: _3  and  _6
REMARK    4  A    between atoms: _6  and  _7
REMARK    5  A    between atoms: _13  and  _15
REMARK    6  A    between atoms: _15  and  _16
REMARK    7  A    between atoms: _15  and  _18
REMARK    8  A    between atoms: _18  and  _19
REMARK    9  A    between atoms: _19  and  _20
REMARK   10  A    between atoms: _23  and  _25
REMARK   11  A    between atoms: _25  and  _26
REMARK   12  A    between atoms: _25  and  _28
REMARK   13  A    between atoms: _28  and  _29
REMARK   14  A    between atoms: _32  and  _34
REMARK   15  A    between atoms: _34  and  _35
REMARK   16  A    between atoms: _34  and  _37
REMARK   17  A    between atoms: _37  and  _38
REMARK   18  A    between atoms: _41  and  _43
REMARK   19  A    between atoms: _43  and  _44
REMARK   20  A    between atoms: _43  and  _46
REMARK   21  A    between atoms: _46  and  _47
REMARK   22  A    between atoms: _49  and  _51
REMARK   23  A    between atoms: _51  and  _52
REMARK   24  A    between atoms: _51  and  _54
REMARK   25  A    between atoms: _54  and  _55
REMARK   26  A    between atoms: _60  and  _62
REMARK   27  A    between atoms: _62  and  _63
REMARK   28  A    between atoms: _62  and  _65
REMARK   29  A    between atoms: _65  and  _66
REMARK   30  A    between atoms: _68  and  _70
REMARK   31  A    between atoms: _70  and  _71
REMARK   32  A    between atoms: _70  and  _73
REMARK   33  A    between atoms: _73  and  _74
REMARK   34  A    between atoms: _76  and  _78
REMARK   35  A    between atoms: _78  and  _79
REMARK   36  A    between atoms: _78  and  _81
REMARK   37  A    between atoms: _81  and  _82
REMARK   38  A    between atoms: _85  and  _87
REMARK   39  A    between atoms: _87  and  _88
REMARK   40  A    between atoms: _91  and  _93
REMARK   41  A    between atoms: _93  and  _94
REMARK   42  A    between atoms: _93  and  _96
REMARK   43  A    between atoms: _96  and  _97
REMARK   44  A    between atoms: _100  and  _102
REMARK   45  A    between atoms: _102  and  _103
REMARK   46  A    between atoms: _102  and  _105
REMARK   47  A    between atoms: _105  and  _106
REMARK   48  A    between atoms: _109  and  _111
REMARK   49  A    between atoms: _111  and  _112
REMARK   50  A    between atoms: _111  and  _114
REMARK   51  A    between atoms: _114  and  _115
REMARK   52  A    between atoms: _115  and  _116
REMARK   53  A    between atoms: _116  and  _117
REMARK   54  A    between atoms: _117  and  _118
REMARK   55  A    between atoms: _122  and  _124
REMARK   56  A    between atoms: _124  and  _125
REMARK   57  A    between atoms: _124  and  _127
REMARK   58  A    between atoms: _127  and  _128
REMARK   59  A    between atoms: _131  and  _133
REMARK   60  A    between atoms: _133  and  _134
REMARK   61  A    between atoms: _133  and  _136
REMARK   62  A    between atoms: _136  and  _137
REMARK   63  A    between atoms: _140  and  _142
REMARK   64  A    between atoms: _142  and  _143
REMARK   65  A    between atoms: _142  and  _145
REMARK   66  A    between atoms: _145  and  _146
REMARK   67  A    between atoms: _149  and  _151
REMARK   68  A    between atoms: _151  and  _152
REMARK   69  A    between atoms: _151  and  _154
REMARK   70  A    between atoms: _157  and  _159
REMARK   71  A    between atoms: _159  and  _160
REMARK   72  A    between atoms: _159  and  _162
REMARK   73  A    between atoms: _162  and  _163
REMARK   74  A    between atoms: _166  and  _168
REMARK   75  A    between atoms: _168  and  _169
REMARK   76  A    between atoms: _168  and  _171
REMARK   77  A    between atoms: _171  and  _172
REMARK   78  A    between atoms: _175  and  _177
REMARK   79  A    between atoms: _177  and  _178
REMARK   80  A    between atoms: _180  and  _182
REMARK   81  A    between atoms: _182  and  _183
REMARK   82  A    between atoms: _182  and  _185
REMARK   83  A    between atoms: _185  and  _186
REMARK   84  A    between atoms: _189  and  _191
REMARK   85  A    between atoms: _191  and  _192
REMARK   86  A    between atoms: _194  and  _196
REMARK   87  A    between atoms: _196  and  _197
REMARK   88  A    between atoms: _196  and  _199
REMARK   89  A    between atoms: _199  and  _200
REMARK   90  A    between atoms: _200  and  _201
REMARK   91  A    between atoms: _203  and  _205
REMARK   92  A    between atoms: _205  and  _206
REMARK   93  A    between atoms: _205  and  _208
REMARK   94  A    between atoms: _208  and  _209
REMARK   95  A    between atoms: _212  and  _214
REMARK   96  A    between atoms: _214  and  _215
REMARK   97  A    between atoms: _214  and  _217
REMARK   98  A    between atoms: _217  and  _218
REMARK   99  A    between atoms: _221  and  _223
REMARK  100  A    between atoms: _223  and  _224
REMARK  101  A    between atoms: _223  and  _226
REMARK  102  A    between atoms: _226  and  _227
REMARK  103  A    between atoms: _230  and  _232
REMARK  104  A    between atoms: _232  and  _233
REMARK  105  A    between atoms: _232  and  _235
REMARK  106  A    between atoms: _235  and  _236
REMARK  107  A    between atoms: _241  and  _243
REMARK  108  A    between atoms: _243  and  _244
REMARK  109  A    between atoms: _243  and  _246
REMARK  110  A    between atoms: _246  and  _247
REMARK  111  A    between atoms: _252  and  _254
REMARK  112  A    between atoms: _254  and  _255
REMARK  113  A    between atoms: _254  and  _257
REMARK  114  A    between atoms: _257  and  _258
REMARK  115  A    between atoms: _261  and  _263
REMARK  116  A    between atoms: _263  and  _264
REMARK  117  A    between atoms: _263  and  _266
REMARK  118  A    between atoms: _266  and  _267
REMARK  119  A    between atoms: _270  and  _272
REMARK  120  A    between atoms: _272  and  _273
REMARK  121  A    between atoms: _272  and  _275
REMARK  122  A    between atoms: _275  and  _276
REMARK  123  A    between atoms: _279  and  _281
REMARK  124  A    between atoms: _281  and  _282
REMARK  125  A    between atoms: _285  and  _287
REMARK  126  A    between atoms: _287  and  _288
REMARK  127  A    between atoms: _287  and  _290
REMARK  128  A    between atoms: _290  and  _291
REMARK  129  A    between atoms: _291  and  _292
REMARK  130  A    between atoms: _292  and  _293
REMARK  131  A    between atoms: _293  and  _294
REMARK  132  A    between atoms: _298  and  _300
REMARK  133  A    between atoms: _300  and  _301
REMARK  134  A    between atoms: _300  and  _303
REMARK  135  A    between atoms: _303  and  _304
REMARK  136  A    between atoms: _306  and  _308
REMARK  137  A    between atoms: _308  and  _309
REMARK  138  A    between atoms: _311  and  _313
REMARK  139  A    between atoms: _313  and  _314
REMARK  140  A    between atoms: _313  and  _316
REMARK  141  A    between atoms: _316  and  _317
REMARK  142  A    between atoms: _323  and  _325
REMARK  143  A    between atoms: _325  and  _326
REMARK  144  A    between atoms: _328  and  _330
REMARK  145  A    between atoms: _330  and  _331
REMARK  146  A    between atoms: _330  and  _333
REMARK  147  A    between atoms: _336  and  _338
REMARK  148  A    between atoms: _338  and  _339
REMARK  149  A    between atoms: _341  and  _343
REMARK  150  A    between atoms: _343  and  _344
REMARK  151  A    between atoms: _343  and  _346
REMARK  152  A    between atoms: _346  and  _347
REMARK  153  A    between atoms: _353  and  _355
REMARK  154  A    between atoms: _355  and  _356
REMARK  155  A    between atoms: _355  and  _358
REMARK  156  A    between atoms: _358  and  _359
REMARK  157  A    between atoms: _364  and  _365
REMARK  158  A    between atoms: _367  and  _369
REMARK  159  A    between atoms: _369  and  _370
REMARK  160  A    between atoms: _373  and  _375
REMARK  161  A    between atoms: _375  and  _376
REMARK  162  A    between atoms: _375  and  _378
REMARK  163  A    between atoms: _378  and  _379
REMARK  164  A    between atoms: _384  and  _385
REMARK  165  A    between atoms: _387  and  _389
REMARK  166  A    between atoms: _389  and  _390
REMARK  167  A    between atoms: _389  and  _392
REMARK  168  A    between atoms: _395  and  _397
REMARK  169  A    between atoms: _397  and  _398
REMARK  170  A    between atoms: _397  and  _400
REMARK  171  A    between atoms: _400  and  _401
REMARK  172  A    between atoms: _404  and  _406
REMARK  173  A    between atoms: _406  and  _407
REMARK  174  A    between atoms: _406  and  _409
REMARK  175  A    between atoms: _412  and  _414
REMARK  176  A    between atoms: _414  and  _415
REMARK  177  A    between atoms: _414  and  _417
REMARK  178  A    between atoms: _417  and  _418
REMARK  179  A    between atoms: _421  and  _423
REMARK  180  A    between atoms: _423  and  _424
REMARK  181  A    between atoms: _423  and  _426
REMARK  182  A    between atoms: _426  and  _427
REMARK  183  A    between atoms: _430  and  _432
REMARK  184  A    between atoms: _432  and  _433
REMARK  185  A    between atoms: _432  and  _435
REMARK  186  A    between atoms: _435  and  _436
REMARK  187  A    between atoms: _436  and  _437
REMARK  188  A    between atoms: _437  and  _438
REMARK  189  A    between atoms: _438  and  _439
REMARK  190  A    between atoms: _443  and  _445
REMARK  191  A    between atoms: _445  and  _446
REMARK  192  A    between atoms: _445  and  _448
REMARK  193  A    between atoms: _448  and  _449
REMARK  194  A    between atoms: _454  and  _456
REMARK  195  A    between atoms: _456  and  _457
REMARK  196  A    between atoms: _456  and  _459
REMARK  197  A    between atoms: _459  and  _460
REMARK  198  A    between atoms: _470  and  _472
REMARK  199  A    between atoms: _472  and  _473
REMARK  200  A    between atoms: _472  and  _475
REMARK  201  A    between atoms: _475  and  _476
REMARK  202  A    between atoms: _476  and  _477
REMARK  203  A    between atoms: _479  and  _481
REMARK  204  A    between atoms: _481  and  _482
REMARK  205  A    between atoms: _481  and  _484
REMARK  206  A    between atoms: _484  and  _485
REMARK  207  A    between atoms: _485  and  _486
REMARK  208  A    between atoms: _486  and  _487
REMARK  209  A    between atoms: _496  and  _498
REMARK  210  A    between atoms: _498  and  _499
REMARK  211  A    between atoms: _501  and  _503
REMARK  212  A    between atoms: _503  and  _504
REMARK  213  A    between atoms: _503  and  _506
REMARK  214  A    between atoms: _506  and  _507
REMARK  215  A    between atoms: _510  and  _512
REMARK  216  A    between atoms: _512  and  _513
REMARK  217  A    between atoms: _512  and  _515
REMARK  218  A    between atoms: _515  and  _516
REMARK  219  A    between atoms: _516  and  _517
REMARK  220  A    between atoms: _517  and  _518
REMARK  221  A    between atoms: _518  and  _519
REMARK  222  A    between atoms: _523  and  _525
REMARK  223  A    between atoms: _525  and  _526
REMARK  224  A    between atoms: _525  and  _528
REMARK  225  A    between atoms: _531  and  _533
REMARK  226  A    between atoms: _533  and  _534
REMARK  227  A    between atoms: _533  and  _536
REMARK  228  A    between atoms: _536  and  _537
REMARK  229  A    between atoms: _540  and  _542
REMARK  230  A    between atoms: _542  and  _543
REMARK  231  A    between atoms: _542  and  _545
REMARK  232  A    between atoms: _545  and  _546
REMARK                            x       y       z     vdW  Elec       q    Type
REMARK                         _______ _______ _______ _____ _____    ______ ____
ROOT
ATOM      1  O   HOH     1      -3.047  41.812  -6.140  0.00  0.00    +0.000 OA
ENDROOT
TORSDOF 0
REMARK  Name = ../refined-set-2016/1yc1/1yc1_pocket.pdb
REMARK  232 active torsions:
REMARK  status: ('A' for Active; 'I' for Inactive)
REMARK    1  A    between atoms: _1  and  _3
REMARK    2  A    between atoms: _3  and  _4
REMARK    3  A    between atoms: _3  and  _6
REMARK    4  A    between atoms: _6  and  _7
REMARK    5  A    between atoms: _13  and  _15
REMARK    6  A    between atoms: _15  and  _16
REMARK    7  A    between atoms: _15  and  _18
REMARK    8  A    between atoms: _18  and  _19
REMARK    9  A    between atoms: _19  and  _20
REMARK   10  A    between atoms: _23  and  _25
REMARK   11  A    between atoms: _25  and  _26
REMARK   12  A    between atoms: _25  and  _28
REMARK   13  A    between atoms: _28  and  _29
REMARK   14  A    between atoms: _32  and  _34
REMARK   15  A    between atoms: _34  and  _35
REMARK   16  A    between atoms: _34  and  _37
REMARK   17  A    between atoms: _37  and  _38
REMARK   18  A    between atoms: _41  and  _43
REMARK   19  A    between atoms: _43  and  _44
REMARK   20  A    between atoms: _43  and  _46
REMARK   21  A    between atoms: _46  and  _47
REMARK   22  A    between atoms: _49  and  _51
REMARK   23  A    between atoms: _51  and  _52
REMARK   24  A    between atoms: _51  and  _54
REMARK   25  A    between atoms: _54  and  _55
REMARK   26  A    between atoms: _60  and  _62
REMARK   27  A    between atoms: _62  and  _63
REMARK   28  A    between atoms: _62  and  _65
REMARK   29  A    between atoms: _65  and  _66
REMARK   30  A    between atoms: _68  and  _70
REMARK   31  A    between atoms: _70  and  _71
REMARK   32  A    between atoms: _70  and  _73
REMARK   33  A    between atoms: _73  and  _74
REMARK   34  A    between atoms: _76  and  _78
REMARK   35  A    between atoms: _78  and  _79
REMARK   36  A    between atoms: _78  and  _81
REMARK   37  A    between atoms: _81  and  _82
REMARK   38  A    between atoms: _85  and  _87
REMARK   39  A    between atoms: _87  and  _88
REMARK   40  A    between atoms: _91  and  _93
REMARK   41  A    between atoms: _93  and  _94
REMARK   42  A    between atoms: _93  and  _96
REMARK   43  A    between atoms: _96  and  _97
REMARK   44  A    between atoms: _100  and  _102
REMARK   45  A    between atoms: _102  and  _103
REMARK   46  A    between atoms: _102  and  _105
REMARK   47  A    between atoms: _105  and  _106
REMARK   48  A    between atoms: _109  and  _111
REMARK   49  A    between atoms: _111  and  _112
REMARK   50  A    between atoms: _111  and  _114
REMARK   51  A    between atoms: _114  and  _115
REMARK   52  A    between atoms: _115  and  _116
REMARK   53  A    between atoms: _116  and  _117
REMARK   54  A    between atoms: _117  and  _118
REMARK   55  A    between atoms: _122  and  _124
REMARK   56  A    between atoms: _124  and  _125
REMARK   57  A    between atoms: _124  and  _127
REMARK   58  A    between atoms: _127  and  _128
REMARK   59  A    between atoms: _131  and  _133
REMARK   60  A    between atoms: _133  and  _134
REMARK   61  A    between atoms: _133  and  _136
REMARK   62  A    between atoms: _136  and  _137
REMARK   63  A    between atoms: _140  and  _142
REMARK   64  A    between atoms: _142  and  _143
REMARK   65  A    between atoms: _142  and  _145
REMARK   66  A    between atoms: _145  and  _146
REMARK   67  A    between atoms: _149  and  _151
REMARK   68  A    between atoms: _151  and  _152
REMARK   69  A    between atoms: _151  and  _154
REMARK   70  A    between atoms: _157  and  _159
REMARK   71  A    between atoms: _159  and  _160
REMARK   72  A    between atoms: _159  and  _162
REMARK   73  A    between atoms: _162  and  _163
REMARK   74  A    between atoms: _166  and  _168
REMARK   75  A    between atoms: _168  and  _169
REMARK   76  A    between atoms: _168  and  _171
REMARK   77  A    between atoms: _171  and  _172
REMARK   78  A    between atoms: _175  and  _177
REMARK   79  A    between atoms: _177  and  _178
REMARK   80  A    between atoms: _180  and  _182
REMARK   81  A    between atoms: _182  and  _183
REMARK   82  A    between atoms: _182  and  _185
REMARK   83  A    between atoms: _185  and  _186
REMARK   84  A    between atoms: _189  and  _191
REMARK   85  A    between atoms: _191  and  _192
REMARK   86  A    between atoms: _194  and  _196
REMARK   87  A    between atoms: _196  and  _197
REMARK   88  A    between atoms: _196  and  _199
REMARK   89  A    between atoms: _199  and  _200
REMARK   90  A    between atoms: _200  and  _201
REMARK   91  A    between atoms: _203  and  _205
REMARK   92  A    between atoms: _205  and  _206
REMARK   93  A    between atoms: _205  and  _208
REMARK   94  A    between atoms: _208  and  _209
REMARK   95  A    between atoms: _212  and  _214
REMARK   96  A    between atoms: _214  and  _215
REMARK   97  A    between atoms: _214  and  _217
REMARK   98  A    between atoms: _217  and  _218
REMARK   99  A    between atoms: _221  and  _223
REMARK  100  A    between atoms: _223  and  _224
REMARK  101  A    between atoms: _223  and  _226
REMARK  102  A    between atoms: _226  and  _227
REMARK  103  A    between atoms: _230  and  _232
REMARK  104  A    between atoms: _232  and  _233
REMARK  105  A    between atoms: _232  and  _235
REMARK  106  A    between atoms: _235  and  _236
REMARK  107  A    between atoms: _241  and  _243
REMARK  108  A    between atoms: _243  and  _244
REMARK  109  A    between atoms: _243  and  _246
REMARK  110  A    between atoms: _246  and  _247
REMARK  111  A    between atoms: _252  and  _254
REMARK  112  A    between atoms: _254  and  _255
REMARK  113  A    between atoms: _254  and  _257
REMARK  114  A    between atoms: _257  and  _258
REMARK  115  A    between atoms: _261  and  _263
REMARK  116  A    between atoms: _263  and  _264
REMARK  117  A    between atoms: _263  and  _266
REMARK  118  A    between atoms: _266  and  _267
REMARK  119  A    between atoms: _270  and  _272
REMARK  120  A    between atoms: _272  and  _273
REMARK  121  A    between atoms: _272  and  _275
REMARK  122  A    between atoms: _275  and  _276
REMARK  123  A    between atoms: _279  and  _281
REMARK  124  A    between atoms: _281  and  _282
REMARK  125  A    between atoms: _285  and  _287
REMARK  126  A    between atoms: _287  and  _288
REMARK  127  A    between atoms: _287  and  _290
REMARK  128  A    between atoms: _290  and  _291
REMARK  129  A    between atoms: _291  and  _292
REMARK  130  A    between atoms: _292  and  _293
REMARK  131  A    between atoms: _293  and  _294
REMARK  132  A    between atoms: _298  and  _300
REMARK  133  A    between atoms: _300  and  _301
REMARK  134  A    between atoms: _300  and  _303
REMARK  135  A    between atoms: _303  and  _304
REMARK  136  A    between atoms: _306  and  _308
REMARK  137  A    between atoms: _308  and  _309
REMARK  138  A    between atoms: _311  and  _313
REMARK  139  A    between atoms: _313  and  _314
REMARK  140  A    between atoms: _313  and  _316
REMARK  141  A    between atoms: _316  and  _317
REMARK  142  A    between atoms: _323  and  _325
REMARK  143  A    between atoms: _325  and  _326
REMARK  144  A    between atoms: _328  and  _330
REMARK  145  A    between atoms: _330  and  _331
REMARK  146  A    between atoms: _330  and  _333
REMARK  147  A    between atoms: _336  and  _338
REMARK  148  A    between atoms: _338  and  _339
REMARK  149  A    between atoms: _341  and  _343
REMARK  150  A    between atoms: _343  and  _344
REMARK  151  A    between atoms: _343  and  _346
REMARK  152  A    between atoms: _346  and  _347
REMARK  153  A    between atoms: _353  and  _355
REMARK  154  A    between atoms: _355  and  _356
REMARK  155  A    between atoms: _355  and  _358
REMARK  156  A    between atoms: _358  and  _359
REMARK  157  A    between atoms: _364  and  _365
REMARK  158  A    between atoms: _367  and  _369
REMARK  159  A    between atoms: _369  and  _370
REMARK  160  A    between atoms: _373  and  _375
REMARK  161  A    between atoms: _375  and  _376
REMARK  162  A    between atoms: _375  and  _378
REMARK  163  A    between atoms: _378  and  _379
REMARK  164  A    between atoms: _384  and  _385
REMARK  165  A    between atoms: _387  and  _389
REMARK  166  A    between atoms: _389  and  _390
REMARK  167  A    between atoms: _389  and  _392
REMARK  168  A    between atoms: _395  and  _397
REMARK  169  A    between atoms: _397  and  _398
REMARK  170  A    between atoms: _397  and  _400
REMARK  171  A    between atoms: _400  and  _401
REMARK  172  A    between atoms: _404  and  _406
REMARK  173  A    between atoms: _406  and  _407
REMARK  174  A    between atoms: _406  and  _409
REMARK  175  A    between atoms: _412  and  _414
REMARK  176  A    between atoms: _414  and  _415
REMARK  177  A    between atoms: _414  and  _417
REMARK  178  A    between atoms: _417  and  _418
REMARK  179  A    between atoms: _421  and  _423
REMARK  180  A    between atoms: _423  and  _424
REMARK  181  A    between atoms: _423  and  _426
REMARK  182  A    between atoms: _426  and  _427
REMARK  183  A    between atoms: _430  and  _432
REMARK  184  A    between atoms: _432  and  _433
REMARK  185  A    between atoms: _432  and  _435
REMARK  186  A    between atoms: _435  and  _436
REMARK  187  A    between atoms: _436  and  _437
REMARK  188  A    between atoms: _437  and  _438
REMARK  189  A    between atoms: _438  and  _439
REMARK  190  A    between atoms: _443  and  _445
REMARK  191  A    between atoms: _445  and  _446
REMARK  192  A    between atoms: _445  and  _448
REMARK  193  A    between atoms: _448  and  _449
REMARK  194  A    between atoms: _454  and  _456
REMARK  195  A    between atoms: _456  and  _457
REMARK  196  A    between atoms: _456  and  _459
REMARK  197  A    between atoms: _459  and  _460
REMARK  198  A    between atoms: _470  and  _472
REMARK  199  A    between atoms: _472  and  _473
REMARK  200  A    between atoms: _472  and  _475
REMARK  201  A    between atoms: _475  and  _476
REMARK  202  A    between atoms: _476  and  _477
REMARK  203  A    between atoms: _479  and  _481
REMARK  204  A    between atoms: _481  and  _482
REMARK  205  A    between atoms: _481  and  _484
REMARK  206  A    between atoms: _484  and  _485
REMARK  207  A    between atoms: _485  and  _486
REMARK  208  A    between atoms: _486  and  _487
REMARK  209  A    between atoms: _496  and  _498
REMARK  210  A    between atoms: _498  and  _499
REMARK  211  A    between atoms: _501  and  _503
REMARK  212  A    between atoms: _503  and  _504
REMARK  213  A    between atoms: _503  and  _506
REMARK  214  A    between atoms: _506  and  _507
REMARK  215  A    between atoms: _510  and  _512
REMARK  216  A    between atoms: _512  and  _513
REMARK  217  A    between atoms: _512  and  _515
REMARK  218  A    between atoms: _515  and  _516
REMARK  219  A    between atoms: _516  and  _517
REMARK  220  A    between atoms: _517  and  _518
REMARK  221  A    between atoms: _518  and  _519
REMARK  222  A    between atoms: _523  and  _525
REMARK  223  A    between atoms: _525  and  _526
REMARK  224  A    between atoms: _525  and  _528
REMARK  225  A    between atoms: _531  and  _533
REMARK  226  A    between atoms: _533  and  _534
REMARK  227  A    between atoms: _533  and  _536
REMARK  228  A    between atoms: _536  and  _537
REMARK  229  A    between atoms: _540  and  _542
REMARK  230  A    between atoms: _542  and  _543
REMARK  231  A    between atoms: _542  and  _545
REMARK  232  A    between atoms: _545  and  _546
REMARK                            x       y       z     vdW  Elec       q    Type
REMARK                         _______ _______ _______ _____ _____    ______ ____
ROOT
ATOM      1  O   HOH     1      -3.743  41.931   0.961  0.00  0.00    +0.000 OA
ENDROOT
TORSDOF 0
REMARK  Name = ../refined-set-2016/1yc1/1yc1_pocket.pdb
REMARK  232 active torsions:
REMARK  status: ('A' for Active; 'I' for Inactive)
REMARK    1  A    between atoms: _1  and  _3
REMARK    2  A    between atoms: _3  and  _4
REMARK    3  A    between atoms: _3  and  _6
REMARK    4  A    between atoms: _6  and  _7
REMARK    5  A    between atoms: _13  and  _15
REMARK    6  A    between atoms: _15  and  _16
REMARK    7  A    between atoms: _15  and  _18
REMARK    8  A    between atoms: _18  and  _19
REMARK    9  A    between atoms: _19  and  _20
REMARK   10  A    between atoms: _23  and  _25
REMARK   11  A    between atoms: _25  and  _26
REMARK   12  A    between atoms: _25  and  _28
REMARK   13  A    between atoms: _28  and  _29
REMARK   14  A    between atoms: _32  and  _34
REMARK   15  A    between atoms: _34  and  _35
REMARK   16  A    between atoms: _34  and  _37
REMARK   17  A    between atoms: _37  and  _38
REMARK   18  A    between atoms: _41  and  _43
REMARK   19  A    between atoms: _43  and  _44
REMARK   20  A    between atoms: _43  and  _46
REMARK   21  A    between atoms: _46  and  _47
REMARK   22  A    between atoms: _49  and  _51
REMARK   23  A    between atoms: _51  and  _52
REMARK   24  A    between atoms: _51  and  _54
REMARK   25  A    between atoms: _54  and  _55
REMARK   26  A    between atoms: _60  and  _62
REMARK   27  A    between atoms: _62  and  _63
REMARK   28  A    between atoms: _62  and  _65
REMARK   29  A    between atoms: _65  and  _66
REMARK   30  A    between atoms: _68  and  _70
REMARK   31  A    between atoms: _70  and  _71
REMARK   32  A    between atoms: _70  and  _73
REMARK   33  A    between atoms: _73  and  _74
REMARK   34  A    between atoms: _76  and  _78
REMARK   35  A    between atoms: _78  and  _79
REMARK   36  A    between atoms: _78  and  _81
REMARK   37  A    between atoms: _81  and  _82
REMARK   38  A    between atoms: _85  and  _87
REMARK   39  A    between atoms: _87  and  _88
REMARK   40  A    between atoms: _91  and  _93
REMARK   41  A    between atoms: _93  and  _94
REMARK   42  A    between atoms: _93  and  _96
REMARK   43  A    between atoms: _96  and  _97
REMARK   44  A    between atoms: _100  and  _102
REMARK   45  A    between atoms: _102  and  _103
REMARK   46  A    between atoms: _102  and  _105
REMARK   47  A    between atoms: _105  and  _106
REMARK   48  A    between atoms: _109  and  _111
REMARK   49  A    between atoms: _111  and  _112
REMARK   50  A    between atoms: _111  and  _114
REMARK   51  A    between atoms: _114  and  _115
REMARK   52  A    between atoms: _115  and  _116
REMARK   53  A    between atoms: _116  and  _117
REMARK   54  A    between atoms: _117  and  _118
REMARK   55  A    between atoms: _122  and  _124
REMARK   56  A    between atoms: _124  and  _125
REMARK   57  A    between atoms: _124  and  _127
REMARK   58  A    between atoms: _127  and  _128
REMARK   59  A    between atoms: _131  and  _133
REMARK   60  A    between atoms: _133  and  _134
REMARK   61  A    between atoms: _133  and  _136
REMARK   62  A    between atoms: _136  and  _137
REMARK   63  A    between atoms: _140  and  _142
REMARK   64  A    between atoms: _142  and  _143
REMARK   65  A    between atoms: _142  and  _145
REMARK   66  A    between atoms: _145  and  _146
REMARK   67  A    between atoms: _149  and  _151
REMARK   68  A    between atoms: _151  and  _152
REMARK   69  A    between atoms: _151  and  _154
REMARK   70  A    between atoms: _157  and  _159
REMARK   71  A    between atoms: _159  and  _160
REMARK   72  A    between atoms: _159  and  _162
REMARK   73  A    between atoms: _162  and  _163
REMARK   74  A    between atoms: _166  and  _168
REMARK   75  A    between atoms: _168  and  _169
REMARK   76  A    between atoms: _168  and  _171
REMARK   77  A    between atoms: _171  and  _172
REMARK   78  A    between atoms: _175  and  _177
REMARK   79  A    between atoms: _177  and  _178
REMARK   80  A    between atoms: _180  and  _182
REMARK   81  A    between atoms: _182  and  _183
REMARK   82  A    between atoms: _182  and  _185
REMARK   83  A    between atoms: _185  and  _186
REMARK   84  A    between atoms: _189  and  _191
REMARK   85  A    between atoms: _191  and  _192
REMARK   86  A    between atoms: _194  and  _196
REMARK   87  A    between atoms: _196  and  _197
REMARK   88  A    between atoms: _196  and  _199
REMARK   89  A    between atoms: _199  and  _200
REMARK   90  A    between atoms: _200  and  _201
REMARK   91  A    between atoms: _203  and  _205
REMARK   92  A    between atoms: _205  and  _206
REMARK   93  A    between atoms: _205  and  _208
REMARK   94  A    between atoms: _208  and  _209
REMARK   95  A    between atoms: _212  and  _214
REMARK   96  A    between atoms: _214  and  _215
REMARK   97  A    between atoms: _214  and  _217
REMARK   98  A    between atoms: _217  and  _218
REMARK   99  A    between atoms: _221  and  _223
REMARK  100  A    between atoms: _223  and  _224
REMARK  101  A    between atoms: _223  and  _226
REMARK  102  A    between atoms: _226  and  _227
REMARK  103  A    between atoms: _230  and  _232
REMARK  104  A    between atoms: _232  and  _233
REMARK  105  A    between atoms: _232  and  _235
REMARK  106  A    between atoms: _235  and  _236
REMARK  107  A    between atoms: _241  and  _243
REMARK  108  A    between atoms: _243  and  _244
REMARK  109  A    between atoms: _243  and  _246
REMARK  110  A    between atoms: _246  and  _247
REMARK  111  A    between atoms: _252  and  _254
REMARK  112  A    between atoms: _254  and  _255
REMARK  113  A    between atoms: _254  and  _257
REMARK  114  A    between atoms: _257  and  _258
REMARK  115  A    between atoms: _261  and  _263
REMARK  116  A    between atoms: _263  and  _264
REMARK  117  A    between atoms: _263  and  _266
REMARK  118  A    between atoms: _266  and  _267
REMARK  119  A    between atoms: _270  and  _272
REMARK  120  A    between atoms: _272  and  _273
REMARK  121  A    between atoms: _272  and  _275
REMARK  122  A    between atoms: _275  and  _276
REMARK  123  A    between atoms: _279  and  _281
REMARK  124  A    between atoms: _281  and  _282
REMARK  125  A    between atoms: _285  and  _287
REMARK  126  A    between atoms: _287  and  _288
REMARK  127  A    between atoms: _287  and  _290
REMARK  128  A    between atoms: _290  and  _291
REMARK  129  A    between atoms: _291  and  _292
REMARK  130  A    between atoms: _292  and  _293
REMARK  131  A    between atoms: _293  and  _294
REMARK  132  A    between atoms: _298  and  _300
REMARK  133  A    between atoms: _300  and  _301
REMARK  134  A    between atoms: _300  and  _303
REMARK  135  A    between atoms: _303  and  _304
REMARK  136  A    between atoms: _306  and  _308
REMARK  137  A    between atoms: _308  and  _309
REMARK  138  A    between atoms: _311  and  _313
REMARK  139  A    between atoms: _313  and  _314
REMARK  140  A    between atoms: _313  and  _316
REMARK  141  A    between atoms: _316  and  _317
REMARK  142  A    between atoms: _323  and  _325
REMARK  143  A    between atoms: _325  and  _326
REMARK  144  A    between atoms: _328  and  _330
REMARK  145  A    between atoms: _330  and  _331
REMARK  146  A    between atoms: _330  and  _333
REMARK  147  A    between atoms: _336  and  _338
REMARK  148  A    between atoms: _338  and  _339
REMARK  149  A    between atoms: _341  and  _343
REMARK  150  A    between atoms: _343  and  _344
REMARK  151  A    between atoms: _343  and  _346
REMARK  152  A    between atoms: _346  and  _347
REMARK  153  A    between atoms: _353  and  _355
REMARK  154  A    between atoms: _355  and  _356
REMARK  155  A    between atoms: _355  and  _358
REMARK  156  A    between atoms: _358  and  _359
REMARK  157  A    between atoms: _364  and  _365
REMARK  158  A    between atoms: _367  and  _369
REMARK  159  A    between atoms: _369  and  _370
REMARK  160  A    between atoms: _373  and  _375
REMARK  161  A    between atoms: _375  and  _376
REMARK  162  A    between atoms: _375  and  _378
REMARK  163  A    between atoms: _378  and  _379
REMARK  164  A    between atoms: _384  and  _385
REMARK  165  A    between atoms: _387  and  _389
REMARK  166  A    between atoms: _389  and  _390
REMARK  167  A    between atoms: _389  and  _392
REMARK  168  A    between atoms: _395  and  _397
REMARK  169  A    between atoms: _397  and  _398
REMARK  170  A    between atoms: _397  and  _400
REMARK  171  A    between atoms: _400  and  _401
REMARK  172  A    between atoms: _404  and  _406
REMARK  173  A    between atoms: _406  and  _407
REMARK  174  A    between atoms: _406  and  _409
REMARK  175  A    between atoms: _412  and  _414
REMARK  176  A    between atoms: _414  and  _415
REMARK  177  A    between atoms: _414  and  _417
REMARK  178  A    between atoms: _417  and  _418
REMARK  179  A    between atoms: _421  and  _423
REMARK  180  A    between atoms: _423  and  _424
REMARK  181  A    between atoms: _423  and  _426
REMARK  182  A    between atoms: _426  and  _427
REMARK  183  A    between atoms: _430  and  _432
REMARK  184  A    between atoms: _432  and  _433
REMARK  185  A    between atoms: _432  and  _435
REMARK  186  A    between atoms: _435  and  _436
REMARK  187  A    between atoms: _436  and  _437
REMARK  188  A    between atoms: _437  and  _438
REMARK  189  A    between atoms: _438  and  _439
REMARK  190  A    between atoms: _443  and  _445
REMARK  191  A    between atoms: _445  and  _446
REMARK  192  A    between atoms: _445  and  _448
REMARK  193  A    between atoms: _448  and  _449
REMARK  194  A    between atoms: _454  and  _456
REMARK  195  A    between atoms: _456  and  _457
REMARK  196  A    between atoms: _456  and  _459
REMARK  197  A    between atoms: _459  and  _460
REMARK  198  A    between atoms: _470  and  _472
REMARK  199  A    between atoms: _472  and  _473
REMARK  200  A    between atoms: _472  and  _475
REMARK  201  A    between atoms: _475  and  _476
REMARK  202  A    between atoms: _476  and  _477
REMARK  203  A    between atoms: _479  and  _481
REMARK  204  A    between atoms: _481  and  _482
REMARK  205  A    between atoms: _481  and  _484
REMARK  206  A    between atoms: _484  and  _485
REMARK  207  A    between atoms: _485  and  _486
REMARK  208  A    between atoms: _486  and  _487
REMARK  209  A    between atoms: _496  and  _498
REMARK  210  A    between atoms: _498  and  _499
REMARK  211  A    between atoms: _501  and  _503
REMARK  212  A    between atoms: _503  and  _504
REMARK  213  A    between atoms: _503  and  _506
REMARK  214  A    between atoms: _506  and  _507
REMARK  215  A    between atoms: _510  and  _512
REMARK  216  A    between atoms: _512  and  _513
REMARK  217  A    between atoms: _512  and  _515
REMARK  218  A    between atoms: _515  and  _516
REMARK  219  A    between atoms: _516  and  _517
REMARK  220  A    between atoms: _517  and  _518
REMARK  221  A    between atoms: _518  and  _519
REMARK  222  A    between atoms: _523  and  _525
REMARK  223  A    between atoms: _525  and  _526
REMARK  224  A    between atoms: _525  and  _528
REMARK  225  A    between atoms: _531  and  _533
REMARK  226  A    between atoms: _533  and  _534
REMARK  227  A    between atoms: _533  and  _536
REMARK  228  A    between atoms: _536  and  _537
REMARK  229  A    between atoms: _540  and  _542
REMARK  230  A    between atoms: _542  and  _543
REMARK  231  A    between atoms: _542  and  _545
REMARK  232  A    between atoms: _545  and  _546
REMARK                            x       y       z     vdW  Elec       q    Type
REMARK                         _______ _______ _______ _____ _____    ______ ____
ROOT
ATOM      1  O   HOH     1       0.717  34.871 -11.426  0.00  0.00    +0.000 OA
ENDROOT
TORSDOF 0
REMARK  Name = ../refined-set-2016/1yc1/1yc1_pocket.pdb
REMARK  232 active torsions:
REMARK  status: ('A' for Active; 'I' for Inactive)
REMARK    1  A    between atoms: _1  and  _3
REMARK    2  A    between atoms: _3  and  _4
REMARK    3  A    between atoms: _3  and  _6
REMARK    4  A    between atoms: _6  and  _7
REMARK    5  A    between atoms: _13  and  _15
REMARK    6  A    between atoms: _15  and  _16
REMARK    7  A    between atoms: _15  and  _18
REMARK    8  A    between atoms: _18  and  _19
REMARK    9  A    between atoms: _19  and  _20
REMARK   10  A    between atoms: _23  and  _25
REMARK   11  A    between atoms: _25  and  _26
REMARK   12  A    between atoms: _25  and  _28
REMARK   13  A    between atoms: _28  and  _29
REMARK   14  A    between atoms: _32  and  _34
REMARK   15  A    between atoms: _34  and  _35
REMARK   16  A    between atoms: _34  and  _37
REMARK   17  A    between atoms: _37  and  _38
REMARK   18  A    between atoms: _41  and  _43
REMARK   19  A    between atoms: _43  and  _44
REMARK   20  A    between atoms: _43  and  _46
REMARK   21  A    between atoms: _46  and  _47
REMARK   22  A    between atoms: _49  and  _51
REMARK   23  A    between atoms: _51  and  _52
REMARK   24  A    between atoms: _51  and  _54
REMARK   25  A    between atoms: _54  and  _55
REMARK   26  A    between atoms: _60  and  _62
REMARK   27  A    between atoms: _62  and  _63
REMARK   28  A    between atoms: _62  and  _65
REMARK   29  A    between atoms: _65  and  _66
REMARK   30  A    between atoms: _68  and  _70
REMARK   31  A    between atoms: _70  and  _71
REMARK   32  A    between atoms: _70  and  _73
REMARK   33  A    between atoms: _73  and  _74
REMARK   34  A    between atoms: _76  and  _78
REMARK   35  A    between atoms: _78  and  _79
REMARK   36  A    between atoms: _78  and  _81
REMARK   37  A    between atoms: _81  and  _82
REMARK   38  A    between atoms: _85  and  _87
REMARK   39  A    between atoms: _87  and  _88
REMARK   40  A    between atoms: _91  and  _93
REMARK   41  A    between atoms: _93  and  _94
REMARK   42  A    between atoms: _93  and  _96
REMARK   43  A    between atoms: _96  and  _97
REMARK   44  A    between atoms: _100  and  _102
REMARK   45  A    between atoms: _102  and  _103
REMARK   46  A    between atoms: _102  and  _105
REMARK   47  A    between atoms: _105  and  _106
REMARK   48  A    between atoms: _109  and  _111
REMARK   49  A    between atoms: _111  and  _112
REMARK   50  A    between atoms: _111  and  _114
REMARK   51  A    between atoms: _114  and  _115
REMARK   52  A    between atoms: _115  and  _116
REMARK   53  A    between atoms: _116  and  _117
REMARK   54  A    between atoms: _117  and  _118
REMARK   55  A    between atoms: _122  and  _124
REMARK   56  A    between atoms: _124  and  _125
REMARK   57  A    between atoms: _124  and  _127
REMARK   58  A    between atoms: _127  and  _128
REMARK   59  A    between atoms: _131  and  _133
REMARK   60  A    between atoms: _133  and  _134
REMARK   61  A    between atoms: _133  and  _136
REMARK   62  A    between atoms: _136  and  _137
REMARK   63  A    between atoms: _140  and  _142
REMARK   64  A    between atoms: _142  and  _143
REMARK   65  A    between atoms: _142  and  _145
REMARK   66  A    between atoms: _145  and  _146
REMARK   67  A    between atoms: _149  and  _151
REMARK   68  A    between atoms: _151  and  _152
REMARK   69  A    between atoms: _151  and  _154
REMARK   70  A    between atoms: _157  and  _159
REMARK   71  A    between atoms: _159  and  _160
REMARK   72  A    between atoms: _159  and  _162
REMARK   73  A    between atoms: _162  and  _163
REMARK   74  A    between atoms: _166  and  _168
REMARK   75  A    between atoms: _168  and  _169
REMARK   76  A    between atoms: _168  and  _171
REMARK   77  A    between atoms: _171  and  _172
REMARK   78  A    between atoms: _175  and  _177
REMARK   79  A    between atoms: _177  and  _178
REMARK   80  A    between atoms: _180  and  _182
REMARK   81  A    between atoms: _182  and  _183
REMARK   82  A    between atoms: _182  and  _185
REMARK   83  A    between atoms: _185  and  _186
REMARK   84  A    between atoms: _189  and  _191
REMARK   85  A    between atoms: _191  and  _192
REMARK   86  A    between atoms: _194  and  _196
REMARK   87  A    between atoms: _196  and  _197
REMARK   88  A    between atoms: _196  and  _199
REMARK   89  A    between atoms: _199  and  _200
REMARK   90  A    between atoms: _200  and  _201
REMARK   91  A    between atoms: _203  and  _205
REMARK   92  A    between atoms: _205  and  _206
REMARK   93  A    between atoms: _205  and  _208
REMARK   94  A    between atoms: _208  and  _209
REMARK   95  A    between atoms: _212  and  _214
REMARK   96  A    between atoms: _214  and  _215
REMARK   97  A    between atoms: _214  and  _217
REMARK   98  A    between atoms: _217  and  _218
REMARK   99  A    between atoms: _221  and  _223
REMARK  100  A    between atoms: _223  and  _224
REMARK  101  A    between atoms: _223  and  _226
REMARK  102  A    between atoms: _226  and  _227
REMARK  103  A    between atoms: _230  and  _232
REMARK  104  A    between atoms: _232  and  _233
REMARK  105  A    between atoms: _232  and  _235
REMARK  106  A    between atoms: _235  and  _236
REMARK  107  A    between atoms: _241  and  _243
REMARK  108  A    between atoms: _243  and  _244
REMARK  109  A    between atoms: _243  and  _246
REMARK  110  A    between atoms: _246  and  _247
REMARK  111  A    between atoms: _252  and  _254
REMARK  112  A    between atoms: _254  and  _255
REMARK  113  A    between atoms: _254  and  _257
REMARK  114  A    between atoms: _257  and  _258
REMARK  115  A    between atoms: _261  and  _263
REMARK  116  A    between atoms: _263  and  _264
REMARK  117  A    between atoms: _263  and  _266
REMARK  118  A    between atoms: _266  and  _267
REMARK  119  A    between atoms: _270  and  _272
REMARK  120  A    between atoms: _272  and  _273
REMARK  121  A    between atoms: _272  and  _275
REMARK  122  A    between atoms: _275  and  _276
REMARK  123  A    between atoms: _279  and  _281
REMARK  124  A    between atoms: _281  and  _282
REMARK  125  A    between atoms: _285  and  _287
REMARK  126  A    between atoms: _287  and  _288
REMARK  127  A    between atoms: _287  and  _290
REMARK  128  A    between atoms: _290  and  _291
REMARK  129  A    between atoms: _291  and  _292
REMARK  130  A    between atoms: _292  and  _293
REMARK  131  A    between atoms: _293  and  _294
REMARK  132  A    between atoms: _298  and  _300
REMARK  133  A    between atoms: _300  and  _301
REMARK  134  A    between atoms: _300  and  _303
REMARK  135  A    between atoms: _303  and  _304
REMARK  136  A    between atoms: _306  and  _308
REMARK  137  A    between atoms: _308  and  _309
REMARK  138  A    between atoms: _311  and  _313
REMARK  139  A    between atoms: _313  and  _314
REMARK  140  A    between atoms: _313  and  _316
REMARK  141  A    between atoms: _316  and  _317
REMARK  142  A    between atoms: _323  and  _325
REMARK  143  A    between atoms: _325  and  _326
REMARK  144  A    between atoms: _328  and  _330
REMARK  145  A    between atoms: _330  and  _331
REMARK  146  A    between atoms: _330  and  _333
REMARK  147  A    between atoms: _336  and  _338
REMARK  148  A    between atoms: _338  and  _339
REMARK  149  A    between atoms: _341  and  _343
REMARK  150  A    between atoms: _343  and  _344
REMARK  151  A    between atoms: _343  and  _346
REMARK  152  A    between atoms: _346  and  _347
REMARK  153  A    between atoms: _353  and  _355
REMARK  154  A    between atoms: _355  and  _356
REMARK  155  A    between atoms: _355  and  _358
REMARK  156  A    between atoms: _358  and  _359
REMARK  157  A    between atoms: _364  and  _365
REMARK  158  A    between atoms: _367  and  _369
REMARK  159  A    between atoms: _369  and  _370
REMARK  160  A    between atoms: _373  and  _375
REMARK  161  A    between atoms: _375  and  _376
REMARK  162  A    between atoms: _375  and  _378
REMARK  163  A    between atoms: _378  and  _379
REMARK  164  A    between atoms: _384  and  _385
REMARK  165  A    between atoms: _387  and  _389
REMARK  166  A    between atoms: _389  and  _390
REMARK  167  A    between atoms: _389  and  _392
REMARK  168  A    between atoms: _395  and  _397
REMARK  169  A    between atoms: _397  and  _398
REMARK  170  A    between atoms: _397  and  _400
REMARK  171  A    between atoms: _400  and  _401
REMARK  172  A    between atoms: _404  and  _406
REMARK  173  A    between atoms: _406  and  _407
REMARK  174  A    between atoms: _406  and  _409
REMARK  175  A    between atoms: _412  and  _414
REMARK  176  A    between atoms: _414  and  _415
REMARK  177  A    between atoms: _414  and  _417
REMARK  178  A    between atoms: _417  and  _418
REMARK  179  A    between atoms: _421  and  _423
REMARK  180  A    between atoms: _423  and  _424
REMARK  181  A    between atoms: _423  and  _426
REMARK  182  A    between atoms: _426  and  _427
REMARK  183  A    between atoms: _430  and  _432
REMARK  184  A    between atoms: _432  and  _433
REMARK  185  A    between atoms: _432  and  _435
REMARK  186  A    between atoms: _435  and  _436
REMARK  187  A    between atoms: _436  and  _437
REMARK  188  A    between atoms: _437  and  _438
REMARK  189  A    between atoms: _438  and  _439
REMARK  190  A    between atoms: _443  and  _445
REMARK  191  A    between atoms: _445  and  _446
REMARK  192  A    between atoms: _445  and  _448
REMARK  193  A    between atoms: _448  and  _449
REMARK  194  A    between atoms: _454  and  _456
REMARK  195  A    between atoms: _456  and  _457
REMARK  196  A    between atoms: _456  and  _459
REMARK  197  A    between atoms: _459  and  _460
REMARK  198  A    between atoms: _470  and  _472
REMARK  199  A    between atoms: _472  and  _473
REMARK  200  A    between atoms: _472  and  _475
REMARK  201  A    between atoms: _475  and  _476
REMARK  202  A    between atoms: _476  and  _477
REMARK  203  A    between atoms: _479  and  _481
REMARK  204  A    between atoms: _481  and  _482
REMARK  205  A    between atoms: _481  and  _484
REMARK  206  A    between atoms: _484  and  _485
REMARK  207  A    between atoms: _485  and  _486
REMARK  208  A    between atoms: _486  and  _487
REMARK  209  A    between atoms: _496  and  _498
REMARK  210  A    between atoms: _498  and  _499
REMARK  211  A    between atoms: _501  and  _503
REMARK  212  A    between atoms: _503  and  _504
REMARK  213  A    between atoms: _503  and  _506
REMARK  214  A    between atoms: _506  and  _507
REMARK  215  A    between atoms: _510  and  _512
REMARK  216  A    between atoms: _512  and  _513
REMARK  217  A    between atoms: _512  and  _515
REMARK  218  A    between atoms: _515  and  _516
REMARK  219  A    between atoms: _516  and  _517
REMARK  220  A    between atoms: _517  and  _518
REMARK  221  A    between atoms: _518  and  _519
REMARK  222  A    between atoms: _523  and  _525
REMARK  223  A    between atoms: _525  and  _526
REMARK  224  A    between atoms: _525  and  _528
REMARK  225  A    between atoms: _531  and  _533
REMARK  226  A    between atoms: _533  and  _534
REMARK  227  A    between atoms: _533  and  _536
REMARK  228  A    between atoms: _536  and  _537
REMARK  229  A    between atoms: _540  and  _542
REMARK  230  A    between atoms: _542  and  _543
REMARK  231  A    between atoms: _542  and  _545
REMARK  232  A    between atoms: _545  and  _546
REMARK                            x       y       z     vdW  Elec       q    Type
REMARK                         _______ _______ _______ _____ _____    ______ ____
ROOT
ATOM      1  O   HOH     1       1.443  37.830 -11.941  0.00  0.00    +0.000 OA
ENDROOT
TORSDOF 0
REMARK  Name = ../refined-set-2016/1yc1/1yc1_pocket.pdb
REMARK  232 active torsions:
REMARK  status: ('A' for Active; 'I' for Inactive)
REMARK    1  A    between atoms: _1  and  _3
REMARK    2  A    between atoms: _3  and  _4
REMARK    3  A    between atoms: _3  and  _6
REMARK    4  A    between atoms: _6  and  _7
REMARK    5  A    between atoms: _13  and  _15
REMARK    6  A    between atoms: _15  and  _16
REMARK    7  A    between atoms: _15  and  _18
REMARK    8  A    between atoms: _18  and  _19
REMARK    9  A    between atoms: _19  and  _20
REMARK   10  A    between atoms: _23  and  _25
REMARK   11  A    between atoms: _25  and  _26
REMARK   12  A    between atoms: _25  and  _28
REMARK   13  A    between atoms: _28  and  _29
REMARK   14  A    between atoms: _32  and  _34
REMARK   15  A    between atoms: _34  and  _35
REMARK   16  A    between atoms: _34  and  _37
REMARK   17  A    between atoms: _37  and  _38
REMARK   18  A    between atoms: _41  and  _43
REMARK   19  A    between atoms: _43  and  _44
REMARK   20  A    between atoms: _43  and  _46
REMARK   21  A    between atoms: _46  and  _47
REMARK   22  A    between atoms: _49  and  _51
REMARK   23  A    between atoms: _51  and  _52
REMARK   24  A    between atoms: _51  and  _54
REMARK   25  A    between atoms: _54  and  _55
REMARK   26  A    between atoms: _60  and  _62
REMARK   27  A    between atoms: _62  and  _63
REMARK   28  A    between atoms: _62  and  _65
REMARK   29  A    between atoms: _65  and  _66
REMARK   30  A    between atoms: _68  and  _70
REMARK   31  A    between atoms: _70  and  _71
REMARK   32  A    between atoms: _70  and  _73
REMARK   33  A    between atoms: _73  and  _74
REMARK   34  A    between atoms: _76  and  _78
REMARK   35  A    between atoms: _78  and  _79
REMARK   36  A    between atoms: _78  and  _81
REMARK   37  A    between atoms: _81  and  _82
REMARK   38  A    between atoms: _85  and  _87
REMARK   39  A    between atoms: _87  and  _88
REMARK   40  A    between atoms: _91  and  _93
REMARK   41  A    between atoms: _93  and  _94
REMARK   42  A    between atoms: _93  and  _96
REMARK   43  A    between atoms: _96  and  _97
REMARK   44  A    between atoms: _100  and  _102
REMARK   45  A    between atoms: _102  and  _103
REMARK   46  A    between atoms: _102  and  _105
REMARK   47  A    between atoms: _105  and  _106
REMARK   48  A    between atoms: _109  and  _111
REMARK   49  A    between atoms: _111  and  _112
REMARK   50  A    between atoms: _111  and  _114
REMARK   51  A    between atoms: _114  and  _115
REMARK   52  A    between atoms: _115  and  _116
REMARK   53  A    between atoms: _116  and  _117
REMARK   54  A    between atoms: _117  and  _118
REMARK   55  A    between atoms: _122  and  _124
REMARK   56  A    between atoms: _124  and  _125
REMARK   57  A    between atoms: _124  and  _127
REMARK   58  A    between atoms: _127  and  _128
REMARK   59  A    between atoms: _131  and  _133
REMARK   60  A    between atoms: _133  and  _134
REMARK   61  A    between atoms: _133  and  _136
REMARK   62  A    between atoms: _136  and  _137
REMARK   63  A    between atoms: _140  and  _142
REMARK   64  A    between atoms: _142  and  _143
REMARK   65  A    between atoms: _142  and  _145
REMARK   66  A    between atoms: _145  and  _146
REMARK   67  A    between atoms: _149  and  _151
REMARK   68  A    between atoms: _151  and  _152
REMARK   69  A    between atoms: _151  and  _154
REMARK   70  A    between atoms: _157  and  _159
REMARK   71  A    between atoms: _159  and  _160
REMARK   72  A    between atoms: _159  and  _162
REMARK   73  A    between atoms: _162  and  _163
REMARK   74  A    between atoms: _166  and  _168
REMARK   75  A    between atoms: _168  and  _169
REMARK   76  A    between atoms: _168  and  _171
REMARK   77  A    between atoms: _171  and  _172
REMARK   78  A    between atoms: _175  and  _177
REMARK   79  A    between atoms: _177  and  _178
REMARK   80  A    between atoms: _180  and  _182
REMARK   81  A    between atoms: _182  and  _183
REMARK   82  A    between atoms: _182  and  _185
REMARK   83  A    between atoms: _185  and  _186
REMARK   84  A    between atoms: _189  and  _191
REMARK   85  A    between atoms: _191  and  _192
REMARK   86  A    between atoms: _194  and  _196
REMARK   87  A    between atoms: _196  and  _197
REMARK   88  A    between atoms: _196  and  _199
REMARK   89  A    between atoms: _199  and  _200
REMARK   90  A    between atoms: _200  and  _201
REMARK   91  A    between atoms: _203  and  _205
REMARK   92  A    between atoms: _205  and  _206
REMARK   93  A    between atoms: _205  and  _208
REMARK   94  A    between atoms: _208  and  _209
REMARK   95  A    between atoms: _212  and  _214
REMARK   96  A    between atoms: _214  and  _215
REMARK   97  A    between atoms: _214  and  _217
REMARK   98  A    between atoms: _217  and  _218
REMARK   99  A    between atoms: _221  and  _223
REMARK  100  A    between atoms: _223  and  _224
REMARK  101  A    between atoms: _223  and  _226
REMARK  102  A    between atoms: _226  and  _227
REMARK  103  A    between atoms: _230  and  _232
REMARK  104  A    between atoms: _232  and  _233
REMARK  105  A    between atoms: _232  and  _235
REMARK  106  A    between atoms: _235  and  _236
REMARK  107  A    between atoms: _241  and  _243
REMARK  108  A    between atoms: _243  and  _244
REMARK  109  A    between atoms: _243  and  _246
REMARK  110  A    between atoms: _246  and  _247
REMARK  111  A    between atoms: _252  and  _254
REMARK  112  A    between atoms: _254  and  _255
REMARK  113  A    between atoms: _254  and  _257
REMARK  114  A    between atoms: _257  and  _258
REMARK  115  A    between atoms: _261  and  _263
REMARK  116  A    between atoms: _263  and  _264
REMARK  117  A    between atoms: _263  and  _266
REMARK  118  A    between atoms: _266  and  _267
REMARK  119  A    between atoms: _270  and  _272
REMARK  120  A    between atoms: _272  and  _273
REMARK  121  A    between atoms: _272  and  _275
REMARK  122  A    between atoms: _275  and  _276
REMARK  123  A    between atoms: _279  and  _281
REMARK  124  A    between atoms: _281  and  _282
REMARK  125  A    between atoms: _285  and  _287
REMARK  126  A    between atoms: _287  and  _288
REMARK  127  A    between atoms: _287  and  _290
REMARK  128  A    between atoms: _290  and  _291
REMARK  129  A    between atoms: _291  and  _292
REMARK  130  A    between atoms: _292  and  _293
REMARK  131  A    between atoms: _293  and  _294
REMARK  132  A    between atoms: _298  and  _300
REMARK  133  A    between atoms: _300  and  _301
REMARK  134  A    between atoms: _300  and  _303
REMARK  135  A    between atoms: _303  and  _304
REMARK  136  A    between atoms: _306  and  _308
REMARK  137  A    between atoms: _308  and  _309
REMARK  138  A    between atoms: _311  and  _313
REMARK  139  A    between atoms: _313  and  _314
REMARK  140  A    between atoms: _313  and  _316
REMARK  141  A    between atoms: _316  and  _317
REMARK  142  A    between atoms: _323  and  _325
REMARK  143  A    between atoms: _325  and  _326
REMARK  144  A    between atoms: _328  and  _330
REMARK  145  A    between atoms: _330  and  _331
REMARK  146  A    between atoms: _330  and  _333
REMARK  147  A    between atoms: _336  and  _338
REMARK  148  A    between atoms: _338  and  _339
REMARK  149  A    between atoms: _341  and  _343
REMARK  150  A    between atoms: _343  and  _344
REMARK  151  A    between atoms: _343  and  _346
REMARK  152  A    between atoms: _346  and  _347
REMARK  153  A    between atoms: _353  and  _355
REMARK  154  A    between atoms: _355  and  _356
REMARK  155  A    between atoms: _355  and  _358
REMARK  156  A    between atoms: _358  and  _359
REMARK  157  A    between atoms: _364  and  _365
REMARK  158  A    between atoms: _367  and  _369
REMARK  159  A    between atoms: _369  and  _370
REMARK  160  A    between atoms: _373  and  _375
REMARK  161  A    between atoms: _375  and  _376
REMARK  162  A    between atoms: _375  and  _378
REMARK  163  A    between atoms: _378  and  _379
REMARK  164  A    between atoms: _384  and  _385
REMARK  165  A    between atoms: _387  and  _389
REMARK  166  A    between atoms: _389  and  _390
REMARK  167  A    between atoms: _389  and  _392
REMARK  168  A    between atoms: _395  and  _397
REMARK  169  A    between atoms: _397  and  _398
REMARK  170  A    between atoms: _397  and  _400
REMARK  171  A    between atoms: _400  and  _401
REMARK  172  A    between atoms: _404  and  _406
REMARK  173  A    between atoms: _406  and  _407
REMARK  174  A    between atoms: _406  and  _409
REMARK  175  A    between atoms: _412  and  _414
REMARK  176  A    between atoms: _414  and  _415
REMARK  177  A    between atoms: _414  and  _417
REMARK  178  A    between atoms: _417  and  _418
REMARK  179  A    between atoms: _421  and  _423
REMARK  180  A    between atoms: _423  and  _424
REMARK  181  A    between atoms: _423  and  _426
REMARK  182  A    between atoms: _426  and  _427
REMARK  183  A    between atoms: _430  and  _432
REMARK  184  A    between atoms: _432  and  _433
REMARK  185  A    between atoms: _432  and  _435
REMARK  186  A    between atoms: _435  and  _436
REMARK  187  A    between atoms: _436  and  _437
REMARK  188  A    between atoms: _437  and  _438
REMARK  189  A    between atoms: _438  and  _439
REMARK  190  A    between atoms: _443  and  _445
REMARK  191  A    between atoms: _445  and  _446
REMARK  192  A    between atoms: _445  and  _448
REMARK  193  A    between atoms: _448  and  _449
REMARK  194  A    between atoms: _454  and  _456
REMARK  195  A    between atoms: _456  and  _457
REMARK  196  A    between atoms: _456  and  _459
REMARK  197  A    between atoms: _459  and  _460
REMARK  198  A    between atoms: _470  and  _472
REMARK  199  A    between atoms: _472  and  _473
REMARK  200  A    between atoms: _472  and  _475
REMARK  201  A    between atoms: _475  and  _476
REMARK  202  A    between atoms: _476  and  _477
REMARK  203  A    between atoms: _479  and  _481
REMARK  204  A    between atoms: _481  and  _482
REMARK  205  A    between atoms: _481  and  _484
REMARK  206  A    between atoms: _484  and  _485
REMARK  207  A    between atoms: _485  and  _486
REMARK  208  A    between atoms: _486  and  _487
REMARK  209  A    between atoms: _496  and  _498
REMARK  210  A    between atoms: _498  and  _499
REMARK  211  A    between atoms: _501  and  _503
REMARK  212  A    between atoms: _503  and  _504
REMARK  213  A    between atoms: _503  and  _506
REMARK  214  A    between atoms: _506  and  _507
REMARK  215  A    between atoms: _510  and  _512
REMARK  216  A    between atoms: _512  and  _513
REMARK  217  A    between atoms: _512  and  _515
REMARK  218  A    between atoms: _515  and  _516
REMARK  219  A    between atoms: _516  and  _517
REMARK  220  A    between atoms: _517  and  _518
REMARK  221  A    between atoms: _518  and  _519
REMARK  222  A    between atoms: _523  and  _525
REMARK  223  A    between atoms: _525  and  _526
REMARK  224  A    between atoms: _525  and  _528
REMARK  225  A    between atoms: _531  and  _533
REMARK  226  A    between atoms: _533  and  _534
REMARK  227  A    between atoms: _533  and  _536
REMARK  228  A    between atoms: _536  and  _537
REMARK  229  A    between atoms: _540  and  _542
REMARK  230  A    between atoms: _542  and  _543
REMARK  231  A    between atoms: _542  and  _545
REMARK  232  A    between atoms: _545  and  _546
REMARK                            x       y       z     vdW  Elec       q    Type
REMARK                         _______ _______ _______ _____ _____    ______ ____
ROOT
ATOM      1  O   HOH     1       7.958  36.216  -8.603  0.00  0.00    +0.000 OA
ENDROOT
TORSDOF 0
REMARK  Name = ../refined-set-2016/1yc1/1yc1_pocket.pdb
REMARK  232 active torsions:
REMARK  status: ('A' for Active; 'I' for Inactive)
REMARK    1  A    between atoms: _1  and  _3
REMARK    2  A    between atoms: _3  and  _4
REMARK    3  A    between atoms: _3  and  _6
REMARK    4  A    between atoms: _6  and  _7
REMARK    5  A    between atoms: _13  and  _15
REMARK    6  A    between atoms: _15  and  _16
REMARK    7  A    between atoms: _15  and  _18
REMARK    8  A    between atoms: _18  and  _19
REMARK    9  A    between atoms: _19  and  _20
REMARK   10  A    between atoms: _23  and  _25
REMARK   11  A    between atoms: _25  and  _26
REMARK   12  A    between atoms: _25  and  _28
REMARK   13  A    between atoms: _28  and  _29
REMARK   14  A    between atoms: _32  and  _34
REMARK   15  A    between atoms: _34  and  _35
REMARK   16  A    between atoms: _34  and  _37
REMARK   17  A    between atoms: _37  and  _38
REMARK   18  A    between atoms: _41  and  _43
REMARK   19  A    between atoms: _43  and  _44
REMARK   20  A    between atoms: _43  and  _46
REMARK   21  A    between atoms: _46  and  _47
REMARK   22  A    between atoms: _49  and  _51
REMARK   23  A    between atoms: _51  and  _52
REMARK   24  A    between atoms: _51  and  _54
REMARK   25  A    between atoms: _54  and  _55
REMARK   26  A    between atoms: _60  and  _62
REMARK   27  A    between atoms: _62  and  _63
REMARK   28  A    between atoms: _62  and  _65
REMARK   29  A    between atoms: _65  and  _66
REMARK   30  A    between atoms: _68  and  _70
REMARK   31  A    between atoms: _70  and  _71
REMARK   32  A    between atoms: _70  and  _73
REMARK   33  A    between atoms: _73  and  _74
REMARK   34  A    between atoms: _76  and  _78
REMARK   35  A    between atoms: _78  and  _79
REMARK   36  A    between atoms: _78  and  _81
REMARK   37  A    between atoms: _81  and  _82
REMARK   38  A    between atoms: _85  and  _87
REMARK   39  A    between atoms: _87  and  _88
REMARK   40  A    between atoms: _91  and  _93
REMARK   41  A    between atoms: _93  and  _94
REMARK   42  A    between atoms: _93  and  _96
REMARK   43  A    between atoms: _96  and  _97
REMARK   44  A    between atoms: _100  and  _102
REMARK   45  A    between atoms: _102  and  _103
REMARK   46  A    between atoms: _102  and  _105
REMARK   47  A    between atoms: _105  and  _106
REMARK   48  A    between atoms: _109  and  _111
REMARK   49  A    between atoms: _111  and  _112
REMARK   50  A    between atoms: _111  and  _114
REMARK   51  A    between atoms: _114  and  _115
REMARK   52  A    between atoms: _115  and  _116
REMARK   53  A    between atoms: _116  and  _117
REMARK   54  A    between atoms: _117  and  _118
REMARK   55  A    between atoms: _122  and  _124
REMARK   56  A    between atoms: _124  and  _125
REMARK   57  A    between atoms: _124  and  _127
REMARK   58  A    between atoms: _127  and  _128
REMARK   59  A    between atoms: _131  and  _133
REMARK   60  A    between atoms: _133  and  _134
REMARK   61  A    between atoms: _133  and  _136
REMARK   62  A    between atoms: _136  and  _137
REMARK   63  A    between atoms: _140  and  _142
REMARK   64  A    between atoms: _142  and  _143
REMARK   65  A    between atoms: _142  and  _145
REMARK   66  A    between atoms: _145  and  _146
REMARK   67  A    between atoms: _149  and  _151
REMARK   68  A    between atoms: _151  and  _152
REMARK   69  A    between atoms: _151  and  _154
REMARK   70  A    between atoms: _157  and  _159
REMARK   71  A    between atoms: _159  and  _160
REMARK   72  A    between atoms: _159  and  _162
REMARK   73  A    between atoms: _162  and  _163
REMARK   74  A    between atoms: _166  and  _168
REMARK   75  A    between atoms: _168  and  _169
REMARK   76  A    between atoms: _168  and  _171
REMARK   77  A    between atoms: _171  and  _172
REMARK   78  A    between atoms: _175  and  _177
REMARK   79  A    between atoms: _177  and  _178
REMARK   80  A    between atoms: _180  and  _182
REMARK   81  A    between atoms: _182  and  _183
REMARK   82  A    between atoms: _182  and  _185
REMARK   83  A    between atoms: _185  and  _186
REMARK   84  A    between atoms: _189  and  _191
REMARK   85  A    between atoms: _191  and  _192
REMARK   86  A    between atoms: _194  and  _196
REMARK   87  A    between atoms: _196  and  _197
REMARK   88  A    between atoms: _196  and  _199
REMARK   89  A    between atoms: _199  and  _200
REMARK   90  A    between atoms: _200  and  _201
REMARK   91  A    between atoms: _203  and  _205
REMARK   92  A    between atoms: _205  and  _206
REMARK   93  A    between atoms: _205  and  _208
REMARK   94  A    between atoms: _208  and  _209
REMARK   95  A    between atoms: _212  and  _214
REMARK   96  A    between atoms: _214  and  _215
REMARK   97  A    between atoms: _214  and  _217
REMARK   98  A    between atoms: _217  and  _218
REMARK   99  A    between atoms: _221  and  _223
REMARK  100  A    between atoms: _223  and  _224
REMARK  101  A    between atoms: _223  and  _226
REMARK  102  A    between atoms: _226  and  _227
REMARK  103  A    between atoms: _230  and  _232
REMARK  104  A    between atoms: _232  and  _233
REMARK  105  A    between atoms: _232  and  _235
REMARK  106  A    between atoms: _235  and  _236
REMARK  107  A    between atoms: _241  and  _243
REMARK  108  A    between atoms: _243  and  _244
REMARK  109  A    between atoms: _243  and  _246
REMARK  110  A    between atoms: _246  and  _247
REMARK  111  A    between atoms: _252  and  _254
REMARK  112  A    between atoms: _254  and  _255
REMARK  113  A    between atoms: _254  and  _257
REMARK  114  A    between atoms: _257  and  _258
REMARK  115  A    between atoms: _261  and  _263
REMARK  116  A    between atoms: _263  and  _264
REMARK  117  A    between atoms: _263  and  _266
REMARK  118  A    between atoms: _266  and  _267
REMARK  119  A    between atoms: _270  and  _272
REMARK  120  A    between atoms: _272  and  _273
REMARK  121  A    between atoms: _272  and  _275
REMARK  122  A    between atoms: _275  and  _276
REMARK  123  A    between atoms: _279  and  _281
REMARK  124  A    between atoms: _281  and  _282
REMARK  125  A    between atoms: _285  and  _287
REMARK  126  A    between atoms: _287  and  _288
REMARK  127  A    between atoms: _287  and  _290
REMARK  128  A    between atoms: _290  and  _291
REMARK  129  A    between atoms: _291  and  _292
REMARK  130  A    between atoms: _292  and  _293
REMARK  131  A    between atoms: _293  and  _294
REMARK  132  A    between atoms: _298  and  _300
REMARK  133  A    between atoms: _300  and  _301
REMARK  134  A    between atoms: _300  and  _303
REMARK  135  A    between atoms: _303  and  _304
REMARK  136  A    between atoms: _306  and  _308
REMARK  137  A    between atoms: _308  and  _309
REMARK  138  A    between atoms: _311  and  _313
REMARK  139  A    between atoms: _313  and  _314
REMARK  140  A    between atoms: _313  and  _316
REMARK  141  A    between atoms: _316  and  _317
REMARK  142  A    between atoms: _323  and  _325
REMARK  143  A    between atoms: _325  and  _326
REMARK  144  A    between atoms: _328  and  _330
REMARK  145  A    between atoms: _330  and  _331
REMARK  146  A    between atoms: _330  and  _333
REMARK  147  A    between atoms: _336  and  _338
REMARK  148  A    between atoms: _338  and  _339
REMARK  149  A    between atoms: _341  and  _343
REMARK  150  A    between atoms: _343  and  _344
REMARK  151  A    between atoms: _343  and  _346
REMARK  152  A    between atoms: _346  and  _347
REMARK  153  A    between atoms: _353  and  _355
REMARK  154  A    between atoms: _355  and  _356
REMARK  155  A    between atoms: _355  and  _358
REMARK  156  A    between atoms: _358  and  _359
REMARK  157  A    between atoms: _364  and  _365
REMARK  158  A    between atoms: _367  and  _369
REMARK  159  A    between atoms: _369  and  _370
REMARK  160  A    between atoms: _373  and  _375
REMARK  161  A    between atoms: _375  and  _376
REMARK  162  A    between atoms: _375  and  _378
REMARK  163  A    between atoms: _378  and  _379
REMARK  164  A    between atoms: _384  and  _385
REMARK  165  A    between atoms: _387  and  _389
REMARK  166  A    between atoms: _389  and  _390
REMARK  167  A    between atoms: _389  and  _392
REMARK  168  A    between atoms: _395  and  _397
REMARK  169  A    between atoms: _397  and  _398
REMARK  170  A    between atoms: _397  and  _400
REMARK  171  A    between atoms: _400  and  _401
REMARK  172  A    between atoms: _404  and  _406
REMARK  173  A    between atoms: _406  and  _407
REMARK  174  A    between atoms: _406  and  _409
REMARK  175  A    between atoms: _412  and  _414
REMARK  176  A    between atoms: _414  and  _415
REMARK  177  A    between atoms: _414  and  _417
REMARK  178  A    between atoms: _417  and  _418
REMARK  179  A    between atoms: _421  and  _423
REMARK  180  A    between atoms: _423  and  _424
REMARK  181  A    between atoms: _423  and  _426
REMARK  182  A    between atoms: _426  and  _427
REMARK  183  A    between atoms: _430  and  _432
REMARK  184  A    between atoms: _432  and  _433
REMARK  185  A    between atoms: _432  and  _435
REMARK  186  A    between atoms: _435  and  _436
REMARK  187  A    between atoms: _436  and  _437
REMARK  188  A    between atoms: _437  and  _438
REMARK  189  A    between atoms: _438  and  _439
REMARK  190  A    between atoms: _443  and  _445
REMARK  191  A    between atoms: _445  and  _446
REMARK  192  A    between atoms: _445  and  _448
REMARK  193  A    between atoms: _448  and  _449
REMARK  194  A    between atoms: _454  and  _456
REMARK  195  A    between atoms: _456  and  _457
REMARK  196  A    between atoms: _456  and  _459
REMARK  197  A    between atoms: _459  and  _460
REMARK  198  A    between atoms: _470  and  _472
REMARK  199  A    between atoms: _472  and  _473
REMARK  200  A    between atoms: _472  and  _475
REMARK  201  A    between atoms: _475  and  _476
REMARK  202  A    between atoms: _476  and  _477
REMARK  203  A    between atoms: _479  and  _481
REMARK  204  A    between atoms: _481  and  _482
REMARK  205  A    between atoms: _481  and  _484
REMARK  206  A    between atoms: _484  and  _485
REMARK  207  A    between atoms: _485  and  _486
REMARK  208  A    between atoms: _486  and  _487
REMARK  209  A    between atoms: _496  and  _498
REMARK  210  A    between atoms: _498  and  _499
REMARK  211  A    between atoms: _501  and  _503
REMARK  212  A    between atoms: _503  and  _504
REMARK  213  A    between atoms: _503  and  _506
REMARK  214  A    between atoms: _506  and  _507
REMARK  215  A    between atoms: _510  and  _512
REMARK  216  A    between atoms: _512  and  _513
REMARK  217  A    between atoms: _512  and  _515
REMARK  218  A    between atoms: _515  and  _516
REMARK  219  A    between atoms: _516  and  _517
REMARK  220  A    between atoms: _517  and  _518
REMARK  221  A    between atoms: _518  and  _519
REMARK  222  A    between atoms: _523  and  _525
REMARK  223  A    between atoms: _525  and  _526
REMARK  224  A    between atoms: _525  and  _528
REMARK  225  A    between atoms: _531  and  _533
REMARK  226  A    between atoms: _533  and  _534
REMARK  227  A    between atoms: _533  and  _536
REMARK  228  A    between atoms: _536  and  _537
REMARK  229  A    between atoms: _540  and  _542
REMARK  230  A    between atoms: _542  and  _543
REMARK  231  A    between atoms: _542  and  _545
REMARK  232  A    between atoms: _545  and  _546
REMARK                            x       y       z     vdW  Elec       q    Type
REMARK                         _______ _______ _______ _____ _____    ______ ____
ROOT
ATOM      1  O   HOH     1       0.584  41.387   2.604  0.00  0.00    +0.000 OA
ENDROOT
TORSDOF 0
REMARK  Name = ../refined-set-2016/1yc1/1yc1_pocket.pdb
REMARK  232 active torsions:
REMARK  status: ('A' for Active; 'I' for Inactive)
REMARK    1  A    between atoms: _1  and  _3
REMARK    2  A    between atoms: _3  and  _4
REMARK    3  A    between atoms: _3  and  _6
REMARK    4  A    between atoms: _6  and  _7
REMARK    5  A    between atoms: _13  and  _15
REMARK    6  A    between atoms: _15  and  _16
REMARK    7  A    between atoms: _15  and  _18
REMARK    8  A    between atoms: _18  and  _19
REMARK    9  A    between atoms: _19  and  _20
REMARK   10  A    between atoms: _23  and  _25
REMARK   11  A    between atoms: _25  and  _26
REMARK   12  A    between atoms: _25  and  _28
REMARK   13  A    between atoms: _28  and  _29
REMARK   14  A    between atoms: _32  and  _34
REMARK   15  A    between atoms: _34  and  _35
REMARK   16  A    between atoms: _34  and  _37
REMARK   17  A    between atoms: _37  and  _38
REMARK   18  A    between atoms: _41  and  _43
REMARK   19  A    between atoms: _43  and  _44
REMARK   20  A    between atoms: _43  and  _46
REMARK   21  A    between atoms: _46  and  _47
REMARK   22  A    between atoms: _49  and  _51
REMARK   23  A    between atoms: _51  and  _52
REMARK   24  A    between atoms: _51  and  _54
REMARK   25  A    between atoms: _54  and  _55
REMARK   26  A    between atoms: _60  and  _62
REMARK   27  A    between atoms: _62  and  _63
REMARK   28  A    between atoms: _62  and  _65
REMARK   29  A    between atoms: _65  and  _66
REMARK   30  A    between atoms: _68  and  _70
REMARK   31  A    between atoms: _70  and  _71
REMARK   32  A    between atoms: _70  and  _73
REMARK   33  A    between atoms: _73  and  _74
REMARK   34  A    between atoms: _76  and  _78
REMARK   35  A    between atoms: _78  and  _79
REMARK   36  A    between atoms: _78  and  _81
REMARK   37  A    between atoms: _81  and  _82
REMARK   38  A    between atoms: _85  and  _87
REMARK   39  A    between atoms: _87  and  _88
REMARK   40  A    between atoms: _91  and  _93
REMARK   41  A    between atoms: _93  and  _94
REMARK   42  A    between atoms: _93  and  _96
REMARK   43  A    between atoms: _96  and  _97
REMARK   44  A    between atoms: _100  and  _102
REMARK   45  A    between atoms: _102  and  _103
REMARK   46  A    between atoms: _102  and  _105
REMARK   47  A    between atoms: _105  and  _106
REMARK   48  A    between atoms: _109  and  _111
REMARK   49  A    between atoms: _111  and  _112
REMARK   50  A    between atoms: _111  and  _114
REMARK   51  A    between atoms: _114  and  _115
REMARK   52  A    between atoms: _115  and  _116
REMARK   53  A    between atoms: _116  and  _117
REMARK   54  A    between atoms: _117  and  _118
REMARK   55  A    between atoms: _122  and  _124
REMARK   56  A    between atoms: _124  and  _125
REMARK   57  A    between atoms: _124  and  _127
REMARK   58  A    between atoms: _127  and  _128
REMARK   59  A    between atoms: _131  and  _133
REMARK   60  A    between atoms: _133  and  _134
REMARK   61  A    between atoms: _133  and  _136
REMARK   62  A    between atoms: _136  and  _137
REMARK   63  A    between atoms: _140  and  _142
REMARK   64  A    between atoms: _142  and  _143
REMARK   65  A    between atoms: _142  and  _145
REMARK   66  A    between atoms: _145  and  _146
REMARK   67  A    between atoms: _149  and  _151
REMARK   68  A    between atoms: _151  and  _152
REMARK   69  A    between atoms: _151  and  _154
REMARK   70  A    between atoms: _157  and  _159
REMARK   71  A    between atoms: _159  and  _160
REMARK   72  A    between atoms: _159  and  _162
REMARK   73  A    between atoms: _162  and  _163
REMARK   74  A    between atoms: _166  and  _168
REMARK   75  A    between atoms: _168  and  _169
REMARK   76  A    between atoms: _168  and  _171
REMARK   77  A    between atoms: _171  and  _172
REMARK   78  A    between atoms: _175  and  _177
REMARK   79  A    between atoms: _177  and  _178
REMARK   80  A    between atoms: _180  and  _182
REMARK   81  A    between atoms: _182  and  _183
REMARK   82  A    between atoms: _182  and  _185
REMARK   83  A    between atoms: _185  and  _186
REMARK   84  A    between atoms: _189  and  _191
REMARK   85  A    between atoms: _191  and  _192
REMARK   86  A    between atoms: _194  and  _196
REMARK   87  A    between atoms: _196  and  _197
REMARK   88  A    between atoms: _196  and  _199
REMARK   89  A    between atoms: _199  and  _200
REMARK   90  A    between atoms: _200  and  _201
REMARK   91  A    between atoms: _203  and  _205
REMARK   92  A    between atoms: _205  and  _206
REMARK   93  A    between atoms: _205  and  _208
REMARK   94  A    between atoms: _208  and  _209
REMARK   95  A    between atoms: _212  and  _214
REMARK   96  A    between atoms: _214  and  _215
REMARK   97  A    between atoms: _214  and  _217
REMARK   98  A    between atoms: _217  and  _218
REMARK   99  A    between atoms: _221  and  _223
REMARK  100  A    between atoms: _223  and  _224
REMARK  101  A    between atoms: _223  and  _226
REMARK  102  A    between atoms: _226  and  _227
REMARK  103  A    between atoms: _230  and  _232
REMARK  104  A    between atoms: _232  and  _233
REMARK  105  A    between atoms: _232  and  _235
REMARK  106  A    between atoms: _235  and  _236
REMARK  107  A    between atoms: _241  and  _243
REMARK  108  A    between atoms: _243  and  _244
REMARK  109  A    between atoms: _243  and  _246
REMARK  110  A    between atoms: _246  and  _247
REMARK  111  A    between atoms: _252  and  _254
REMARK  112  A    between atoms: _254  and  _255
REMARK  113  A    between atoms: _254  and  _257
REMARK  114  A    between atoms: _257  and  _258
REMARK  115  A    between atoms: _261  and  _263
REMARK  116  A    between atoms: _263  and  _264
REMARK  117  A    between atoms: _263  and  _266
REMARK  118  A    between atoms: _266  and  _267
REMARK  119  A    between atoms: _270  and  _272
REMARK  120  A    between atoms: _272  and  _273
REMARK  121  A    between atoms: _272  and  _275
REMARK  122  A    between atoms: _275  and  _276
REMARK  123  A    between atoms: _279  and  _281
REMARK  124  A    between atoms: _281  and  _282
REMARK  125  A    between atoms: _285  and  _287
REMARK  126  A    between atoms: _287  and  _288
REMARK  127  A    between atoms: _287  and  _290
REMARK  128  A    between atoms: _290  and  _291
REMARK  129  A    between atoms: _291  and  _292
REMARK  130  A    between atoms: _292  and  _293
REMARK  131  A    between atoms: _293  and  _294
REMARK  132  A    between atoms: _298  and  _300
REMARK  133  A    between atoms: _300  and  _301
REMARK  134  A    between atoms: _300  and  _303
REMARK  135  A    between atoms: _303  and  _304
REMARK  136  A    between atoms: _306  and  _308
REMARK  137  A    between atoms: _308  and  _309
REMARK  138  A    between atoms: _311  and  _313
REMARK  139  A    between atoms: _313  and  _314
REMARK  140  A    between atoms: _313  and  _316
REMARK  141  A    between atoms: _316  and  _317
REMARK  142  A    between atoms: _323  and  _325
REMARK  143  A    between atoms: _325  and  _326
REMARK  144  A    between atoms: _328  and  _330
REMARK  145  A    between atoms: _330  and  _331
REMARK  146  A    between atoms: _330  and  _333
REMARK  147  A    between atoms: _336  and  _338
REMARK  148  A    between atoms: _338  and  _339
REMARK  149  A    between atoms: _341  and  _343
REMARK  150  A    between atoms: _343  and  _344
REMARK  151  A    between atoms: _343  and  _346
REMARK  152  A    between atoms: _346  and  _347
REMARK  153  A    between atoms: _353  and  _355
REMARK  154  A    between atoms: _355  and  _356
REMARK  155  A    between atoms: _355  and  _358
REMARK  156  A    between atoms: _358  and  _359
REMARK  157  A    between atoms: _364  and  _365
REMARK  158  A    between atoms: _367  and  _369
REMARK  159  A    between atoms: _369  and  _370
REMARK  160  A    between atoms: _373  and  _375
REMARK  161  A    between atoms: _375  and  _376
REMARK  162  A    between atoms: _375  and  _378
REMARK  163  A    between atoms: _378  and  _379
REMARK  164  A    between atoms: _384  and  _385
REMARK  165  A    between atoms: _387  and  _389
REMARK  166  A    between atoms: _389  and  _390
REMARK  167  A    between atoms: _389  and  _392
REMARK  168  A    between atoms: _395  and  _397
REMARK  169  A    between atoms: _397  and  _398
REMARK  170  A    between atoms: _397  and  _400
REMARK  171  A    between atoms: _400  and  _401
REMARK  172  A    between atoms: _404  and  _406
REMARK  173  A    between atoms: _406  and  _407
REMARK  174  A    between atoms: _406  and  _409
REMARK  175  A    between atoms: _412  and  _414
REMARK  176  A    between atoms: _414  and  _415
REMARK  177  A    between atoms: _414  and  _417
REMARK  178  A    between atoms: _417  and  _418
REMARK  179  A    between atoms: _421  and  _423
REMARK  180  A    between atoms: _423  and  _424
REMARK  181  A    between atoms: _423  and  _426
REMARK  182  A    between atoms: _426  and  _427
REMARK  183  A    between atoms: _430  and  _432
REMARK  184  A    between atoms: _432  and  _433
REMARK  185  A    between atoms: _432  and  _435
REMARK  186  A    between atoms: _435  and  _436
REMARK  187  A    between atoms: _436  and  _437
REMARK  188  A    between atoms: _437  and  _438
REMARK  189  A    between atoms: _438  and  _439
REMARK  190  A    between atoms: _443  and  _445
REMARK  191  A    between atoms: _445  and  _446
REMARK  192  A    between atoms: _445  and  _448
REMARK  193  A    between atoms: _448  and  _449
REMARK  194  A    between atoms: _454  and  _456
REMARK  195  A    between atoms: _456  and  _457
REMARK  196  A    between atoms: _456  and  _459
REMARK  197  A    between atoms: _459  and  _460
REMARK  198  A    between atoms: _470  and  _472
REMARK  199  A    between atoms: _472  and  _473
REMARK  200  A    between atoms: _472  and  _475
REMARK  201  A    between atoms: _475  and  _476
REMARK  202  A    between atoms: _476  and  _477
REMARK  203  A    between atoms: _479  and  _481
REMARK  204  A    between atoms: _481  and  _482
REMARK  205  A    between atoms: _481  and  _484
REMARK  206  A    between atoms: _484  and  _485
REMARK  207  A    between atoms: _485  and  _486
REMARK  208  A    between atoms: _486  and  _487
REMARK  209  A    between atoms: _496  and  _498
REMARK  210  A    between atoms: _498  and  _499
REMARK  211  A    between atoms: _501  and  _503
REMARK  212  A    between atoms: _503  and  _504
REMARK  213  A    between atoms: _503  and  _506
REMARK  214  A    between atoms: _506  and  _507
REMARK  215  A    between atoms: _510  and  _512
REMARK  216  A    between atoms: _512  and  _513
REMARK  217  A    between atoms: _512  and  _515
REMARK  218  A    between atoms: _515  and  _516
REMARK  219  A    between atoms: _516  and  _517
REMARK  220  A    between atoms: _517  and  _518
REMARK  221  A    between atoms: _518  and  _519
REMARK  222  A    between atoms: _523  and  _525
REMARK  223  A    between atoms: _525  and  _526
REMARK  224  A    between atoms: _525  and  _528
REMARK  225  A    between atoms: _531  and  _533
REMARK  226  A    between atoms: _533  and  _534
REMARK  227  A    between atoms: _533  and  _536
REMARK  228  A    between atoms: _536  and  _537
REMARK  229  A    between atoms: _540  and  _542
REMARK  230  A    between atoms: _542  and  _543
REMARK  231  A    between atoms: _542  and  _545
REMARK  232  A    between atoms: _545  and  _546
REMARK                            x       y       z     vdW  Elec       q    Type
REMARK                         _______ _______ _______ _____ _____    ______ ____
ROOT
ATOM      1  O   HOH     1       4.941  44.526   1.334  0.00  0.00    +0.000 OA
ENDROOT
TORSDOF 0
REMARK  Name = ../refined-set-2016/1yc1/1yc1_pocket.pdb
REMARK  232 active torsions:
REMARK  status: ('A' for Active; 'I' for Inactive)
REMARK    1  A    between atoms: _1  and  _3
REMARK    2  A    between atoms: _3  and  _4
REMARK    3  A    between atoms: _3  and  _6
REMARK    4  A    between atoms: _6  and  _7
REMARK    5  A    between atoms: _13  and  _15
REMARK    6  A    between atoms: _15  and  _16
REMARK    7  A    between atoms: _15  and  _18
REMARK    8  A    between atoms: _18  and  _19
REMARK    9  A    between atoms: _19  and  _20
REMARK   10  A    between atoms: _23  and  _25
REMARK   11  A    between atoms: _25  and  _26
REMARK   12  A    between atoms: _25  and  _28
REMARK   13  A    between atoms: _28  and  _29
REMARK   14  A    between atoms: _32  and  _34
REMARK   15  A    between atoms: _34  and  _35
REMARK   16  A    between atoms: _34  and  _37
REMARK   17  A    between atoms: _37  and  _38
REMARK   18  A    between atoms: _41  and  _43
REMARK   19  A    between atoms: _43  and  _44
REMARK   20  A    between atoms: _43  and  _46
REMARK   21  A    between atoms: _46  and  _47
REMARK   22  A    between atoms: _49  and  _51
REMARK   23  A    between atoms: _51  and  _52
REMARK   24  A    between atoms: _51  and  _54
REMARK   25  A    between atoms: _54  and  _55
REMARK   26  A    between atoms: _60  and  _62
REMARK   27  A    between atoms: _62  and  _63
REMARK   28  A    between atoms: _62  and  _65
REMARK   29  A    between atoms: _65  and  _66
REMARK   30  A    between atoms: _68  and  _70
REMARK   31  A    between atoms: _70  and  _71
REMARK   32  A    between atoms: _70  and  _73
REMARK   33  A    between atoms: _73  and  _74
REMARK   34  A    between atoms: _76  and  _78
REMARK   35  A    between atoms: _78  and  _79
REMARK   36  A    between atoms: _78  and  _81
REMARK   37  A    between atoms: _81  and  _82
REMARK   38  A    between atoms: _85  and  _87
REMARK   39  A    between atoms: _87  and  _88
REMARK   40  A    between atoms: _91  and  _93
REMARK   41  A    between atoms: _93  and  _94
REMARK   42  A    between atoms: _93  and  _96
REMARK   43  A    between atoms: _96  and  _97
REMARK   44  A    between atoms: _100  and  _102
REMARK   45  A    between atoms: _102  and  _103
REMARK   46  A    between atoms: _102  and  _105
REMARK   47  A    between atoms: _105  and  _106
REMARK   48  A    between atoms: _109  and  _111
REMARK   49  A    between atoms: _111  and  _112
REMARK   50  A    between atoms: _111  and  _114
REMARK   51  A    between atoms: _114  and  _115
REMARK   52  A    between atoms: _115  and  _116
REMARK   53  A    between atoms: _116  and  _117
REMARK   54  A    between atoms: _117  and  _118
REMARK   55  A    between atoms: _122  and  _124
REMARK   56  A    between atoms: _124  and  _125
REMARK   57  A    between atoms: _124  and  _127
REMARK   58  A    between atoms: _127  and  _128
REMARK   59  A    between atoms: _131  and  _133
REMARK   60  A    between atoms: _133  and  _134
REMARK   61  A    between atoms: _133  and  _136
REMARK   62  A    between atoms: _136  and  _137
REMARK   63  A    between atoms: _140  and  _142
REMARK   64  A    between atoms: _142  and  _143
REMARK   65  A    between atoms: _142  and  _145
REMARK   66  A    between atoms: _145  and  _146
REMARK   67  A    between atoms: _149  and  _151
REMARK   68  A    between atoms: _151  and  _152
REMARK   69  A    between atoms: _151  and  _154
REMARK   70  A    between atoms: _157  and  _159
REMARK   71  A    between atoms: _159  and  _160
REMARK   72  A    between atoms: _159  and  _162
REMARK   73  A    between atoms: _162  and  _163
REMARK   74  A    between atoms: _166  and  _168
REMARK   75  A    between atoms: _168  and  _169
REMARK   76  A    between atoms: _168  and  _171
REMARK   77  A    between atoms: _171  and  _172
REMARK   78  A    between atoms: _175  and  _177
REMARK   79  A    between atoms: _177  and  _178
REMARK   80  A    between atoms: _180  and  _182
REMARK   81  A    between atoms: _182  and  _183
REMARK   82  A    between atoms: _182  and  _185
REMARK   83  A    between atoms: _185  and  _186
REMARK   84  A    between atoms: _189  and  _191
REMARK   85  A    between atoms: _191  and  _192
REMARK   86  A    between atoms: _194  and  _196
REMARK   87  A    between atoms: _196  and  _197
REMARK   88  A    between atoms: _196  and  _199
REMARK   89  A    between atoms: _199  and  _200
REMARK   90  A    between atoms: _200  and  _201
REMARK   91  A    between atoms: _203  and  _205
REMARK   92  A    between atoms: _205  and  _206
REMARK   93  A    between atoms: _205  and  _208
REMARK   94  A    between atoms: _208  and  _209
REMARK   95  A    between atoms: _212  and  _214
REMARK   96  A    between atoms: _214  and  _215
REMARK   97  A    between atoms: _214  and  _217
REMARK   98  A    between atoms: _217  and  _218
REMARK   99  A    between atoms: _221  and  _223
REMARK  100  A    between atoms: _223  and  _224
REMARK  101  A    between atoms: _223  and  _226
REMARK  102  A    between atoms: _226  and  _227
REMARK  103  A    between atoms: _230  and  _232
REMARK  104  A    between atoms: _232  and  _233
REMARK  105  A    between atoms: _232  and  _235
REMARK  106  A    between atoms: _235  and  _236
REMARK  107  A    between atoms: _241  and  _243
REMARK  108  A    between atoms: _243  and  _244
REMARK  109  A    between atoms: _243  and  _246
REMARK  110  A    between atoms: _246  and  _247
REMARK  111  A    between atoms: _252  and  _254
REMARK  112  A    between atoms: _254  and  _255
REMARK  113  A    between atoms: _254  and  _257
REMARK  114  A    between atoms: _257  and  _258
REMARK  115  A    between atoms: _261  and  _263
REMARK  116  A    between atoms: _263  and  _264
REMARK  117  A    between atoms: _263  and  _266
REMARK  118  A    between atoms: _266  and  _267
REMARK  119  A    between atoms: _270  and  _272
REMARK  120  A    between atoms: _272  and  _273
REMARK  121  A    between atoms: _272  and  _275
REMARK  122  A    between atoms: _275  and  _276
REMARK  123  A    between atoms: _279  and  _281
REMARK  124  A    between atoms: _281  and  _282
REMARK  125  A    between atoms: _285  and  _287
REMARK  126  A    between atoms: _287  and  _288
REMARK  127  A    between atoms: _287  and  _290
REMARK  128  A    between atoms: _290  and  _291
REMARK  129  A    between atoms: _291  and  _292
REMARK  130  A    between atoms: _292  and  _293
REMARK  131  A    between atoms: _293  and  _294
REMARK  132  A    between atoms: _298  and  _300
REMARK  133  A    between atoms: _300  and  _301
REMARK  134  A    between atoms: _300  and  _303
REMARK  135  A    between atoms: _303  and  _304
REMARK  136  A    between atoms: _306  and  _308
REMARK  137  A    between atoms: _308  and  _309
REMARK  138  A    between atoms: _311  and  _313
REMARK  139  A    between atoms: _313  and  _314
REMARK  140  A    between atoms: _313  and  _316
REMARK  141  A    between atoms: _316  and  _317
REMARK  142  A    between atoms: _323  and  _325
REMARK  143  A    between atoms: _325  and  _326
REMARK  144  A    between atoms: _328  and  _330
REMARK  145  A    between atoms: _330  and  _331
REMARK  146  A    between atoms: _330  and  _333
REMARK  147  A    between atoms: _336  and  _338
REMARK  148  A    between atoms: _338  and  _339
REMARK  149  A    between atoms: _341  and  _343
REMARK  150  A    between atoms: _343  and  _344
REMARK  151  A    between atoms: _343  and  _346
REMARK  152  A    between atoms: _346  and  _347
REMARK  153  A    between atoms: _353  and  _355
REMARK  154  A    between atoms: _355  and  _356
REMARK  155  A    between atoms: _355  and  _358
REMARK  156  A    between atoms: _358  and  _359
REMARK  157  A    between atoms: _364  and  _365
REMARK  158  A    between atoms: _367  and  _369
REMARK  159  A    between atoms: _369  and  _370
REMARK  160  A    between atoms: _373  and  _375
REMARK  161  A    between atoms: _375  and  _376
REMARK  162  A    between atoms: _375  and  _378
REMARK  163  A    between atoms: _378  and  _379
REMARK  164  A    between atoms: _384  and  _385
REMARK  165  A    between atoms: _387  and  _389
REMARK  166  A    between atoms: _389  and  _390
REMARK  167  A    between atoms: _389  and  _392
REMARK  168  A    between atoms: _395  and  _397
REMARK  169  A    between atoms: _397  and  _398
REMARK  170  A    between atoms: _397  and  _400
REMARK  171  A    between atoms: _400  and  _401
REMARK  172  A    between atoms: _404  and  _406
REMARK  173  A    between atoms: _406  and  _407
REMARK  174  A    between atoms: _406  and  _409
REMARK  175  A    between atoms: _412  and  _414
REMARK  176  A    between atoms: _414  and  _415
REMARK  177  A    between atoms: _414  and  _417
REMARK  178  A    between atoms: _417  and  _418
REMARK  179  A    between atoms: _421  and  _423
REMARK  180  A    between atoms: _423  and  _424
REMARK  181  A    between atoms: _423  and  _426
REMARK  182  A    between atoms: _426  and  _427
REMARK  183  A    between atoms: _430  and  _432
REMARK  184  A    between atoms: _432  and  _433
REMARK  185  A    between atoms: _432  and  _435
REMARK  186  A    between atoms: _435  and  _436
REMARK  187  A    between atoms: _436  and  _437
REMARK  188  A    between atoms: _437  and  _438
REMARK  189  A    between atoms: _438  and  _439
REMARK  190  A    between atoms: _443  and  _445
REMARK  191  A    between atoms: _445  and  _446
REMARK  192  A    between atoms: _445  and  _448
REMARK  193  A    between atoms: _448  and  _449
REMARK  194  A    between atoms: _454  and  _456
REMARK  195  A    between atoms: _456  and  _457
REMARK  196  A    between atoms: _456  and  _459
REMARK  197  A    between atoms: _459  and  _460
REMARK  198  A    between atoms: _470  and  _472
REMARK  199  A    between atoms: _472  and  _473
REMARK  200  A    between atoms: _472  and  _475
REMARK  201  A    between atoms: _475  and  _476
REMARK  202  A    between atoms: _476  and  _477
REMARK  203  A    between atoms: _479  and  _481
REMARK  204  A    between atoms: _481  and  _482
REMARK  205  A    between atoms: _481  and  _484
REMARK  206  A    between atoms: _484  and  _485
REMARK  207  A    between atoms: _485  and  _486
REMARK  208  A    between atoms: _486  and  _487
REMARK  209  A    between atoms: _496  and  _498
REMARK  210  A    between atoms: _498  and  _499
REMARK  211  A    between atoms: _501  and  _503
REMARK  212  A    between atoms: _503  and  _504
REMARK  213  A    between atoms: _503  and  _506
REMARK  214  A    between atoms: _506  and  _507
REMARK  215  A    between atoms: _510  and  _512
REMARK  216  A    between atoms: _512  and  _513
REMARK  217  A    between atoms: _512  and  _515
REMARK  218  A    between atoms: _515  and  _516
REMARK  219  A    between atoms: _516  and  _517
REMARK  220  A    between atoms: _517  and  _518
REMARK  221  A    between atoms: _518  and  _519
REMARK  222  A    between atoms: _523  and  _525
REMARK  223  A    between atoms: _525  and  _526
REMARK  224  A    between atoms: _525  and  _528
REMARK  225  A    between atoms: _531  and  _533
REMARK  226  A    between atoms: _533  and  _534
REMARK  227  A    between atoms: _533  and  _536
REMARK  228  A    between atoms: _536  and  _537
REMARK  229  A    between atoms: _540  and  _542
REMARK  230  A    between atoms: _542  and  _543
REMARK  231  A    between atoms: _542  and  _545
REMARK  232  A    between atoms: _545  and  _546
REMARK                            x       y       z     vdW  Elec       q    Type
REMARK                         _______ _______ _______ _____ _____    ______ ____
ROOT
ATOM      1  O   HOH     1      -0.735  43.063  -0.486  0.00  0.00    +0.000 OA
ENDROOT
TORSDOF 0
REMARK  Name = ../refined-set-2016/1yc1/1yc1_pocket.pdb
REMARK  232 active torsions:
REMARK  status: ('A' for Active; 'I' for Inactive)
REMARK    1  A    between atoms: _1  and  _3
REMARK    2  A    between atoms: _3  and  _4
REMARK    3  A    between atoms: _3  and  _6
REMARK    4  A    between atoms: _6  and  _7
REMARK    5  A    between atoms: _13  and  _15
REMARK    6  A    between atoms: _15  and  _16
REMARK    7  A    between atoms: _15  and  _18
REMARK    8  A    between atoms: _18  and  _19
REMARK    9  A    between atoms: _19  and  _20
REMARK   10  A    between atoms: _23  and  _25
REMARK   11  A    between atoms: _25  and  _26
REMARK   12  A    between atoms: _25  and  _28
REMARK   13  A    between atoms: _28  and  _29
REMARK   14  A    between atoms: _32  and  _34
REMARK   15  A    between atoms: _34  and  _35
REMARK   16  A    between atoms: _34  and  _37
REMARK   17  A    between atoms: _37  and  _38
REMARK   18  A    between atoms: _41  and  _43
REMARK   19  A    between atoms: _43  and  _44
REMARK   20  A    between atoms: _43  and  _46
REMARK   21  A    between atoms: _46  and  _47
REMARK   22  A    between atoms: _49  and  _51
REMARK   23  A    between atoms: _51  and  _52
REMARK   24  A    between atoms: _51  and  _54
REMARK   25  A    between atoms: _54  and  _55
REMARK   26  A    between atoms: _60  and  _62
REMARK   27  A    between atoms: _62  and  _63
REMARK   28  A    between atoms: _62  and  _65
REMARK   29  A    between atoms: _65  and  _66
REMARK   30  A    between atoms: _68  and  _70
REMARK   31  A    between atoms: _70  and  _71
REMARK   32  A    between atoms: _70  and  _73
REMARK   33  A    between atoms: _73  and  _74
REMARK   34  A    between atoms: _76  and  _78
REMARK   35  A    between atoms: _78  and  _79
REMARK   36  A    between atoms: _78  and  _81
REMARK   37  A    between atoms: _81  and  _82
REMARK   38  A    between atoms: _85  and  _87
REMARK   39  A    between atoms: _87  and  _88
REMARK   40  A    between atoms: _91  and  _93
REMARK   41  A    between atoms: _93  and  _94
REMARK   42  A    between atoms: _93  and  _96
REMARK   43  A    between atoms: _96  and  _97
REMARK   44  A    between atoms: _100  and  _102
REMARK   45  A    between atoms: _102  and  _103
REMARK   46  A    between atoms: _102  and  _105
REMARK   47  A    between atoms: _105  and  _106
REMARK   48  A    between atoms: _109  and  _111
REMARK   49  A    between atoms: _111  and  _112
REMARK   50  A    between atoms: _111  and  _114
REMARK   51  A    between atoms: _114  and  _115
REMARK   52  A    between atoms: _115  and  _116
REMARK   53  A    between atoms: _116  and  _117
REMARK   54  A    between atoms: _117  and  _118
REMARK   55  A    between atoms: _122  and  _124
REMARK   56  A    between atoms: _124  and  _125
REMARK   57  A    between atoms: _124  and  _127
REMARK   58  A    between atoms: _127  and  _128
REMARK   59  A    between atoms: _131  and  _133
REMARK   60  A    between atoms: _133  and  _134
REMARK   61  A    between atoms: _133  and  _136
REMARK   62  A    between atoms: _136  and  _137
REMARK   63  A    between atoms: _140  and  _142
REMARK   64  A    between atoms: _142  and  _143
REMARK   65  A    between atoms: _142  and  _145
REMARK   66  A    between atoms: _145  and  _146
REMARK   67  A    between atoms: _149  and  _151
REMARK   68  A    between atoms: _151  and  _152
REMARK   69  A    between atoms: _151  and  _154
REMARK   70  A    between atoms: _157  and  _159
REMARK   71  A    between atoms: _159  and  _160
REMARK   72  A    between atoms: _159  and  _162
REMARK   73  A    between atoms: _162  and  _163
REMARK   74  A    between atoms: _166  and  _168
REMARK   75  A    between atoms: _168  and  _169
REMARK   76  A    between atoms: _168  and  _171
REMARK   77  A    between atoms: _171  and  _172
REMARK   78  A    between atoms: _175  and  _177
REMARK   79  A    between atoms: _177  and  _178
REMARK   80  A    between atoms: _180  and  _182
REMARK   81  A    between atoms: _182  and  _183
REMARK   82  A    between atoms: _182  and  _185
REMARK   83  A    between atoms: _185  and  _186
REMARK   84  A    between atoms: _189  and  _191
REMARK   85  A    between atoms: _191  and  _192
REMARK   86  A    between atoms: _194  and  _196
REMARK   87  A    between atoms: _196  and  _197
REMARK   88  A    between atoms: _196  and  _199
REMARK   89  A    between atoms: _199  and  _200
REMARK   90  A    between atoms: _200  and  _201
REMARK   91  A    between atoms: _203  and  _205
REMARK   92  A    between atoms: _205  and  _206
REMARK   93  A    between atoms: _205  and  _208
REMARK   94  A    between atoms: _208  and  _209
REMARK   95  A    between atoms: _212  and  _214
REMARK   96  A    between atoms: _214  and  _215
REMARK   97  A    between atoms: _214  and  _217
REMARK   98  A    between atoms: _217  and  _218
REMARK   99  A    between atoms: _221  and  _223
REMARK  100  A    between atoms: _223  and  _224
REMARK  101  A    between atoms: _223  and  _226
REMARK  102  A    between atoms: _226  and  _227
REMARK  103  A    between atoms: _230  and  _232
REMARK  104  A    between atoms: _232  and  _233
REMARK  105  A    between atoms: _232  and  _235
REMARK  106  A    between atoms: _235  and  _236
REMARK  107  A    between atoms: _241  and  _243
REMARK  108  A    between atoms: _243  and  _244
REMARK  109  A    between atoms: _243  and  _246
REMARK  110  A    between atoms: _246  and  _247
REMARK  111  A    between atoms: _252  and  _254
REMARK  112  A    between atoms: _254  and  _255
REMARK  113  A    between atoms: _254  and  _257
REMARK  114  A    between atoms: _257  and  _258
REMARK  115  A    between atoms: _261  and  _263
REMARK  116  A    between atoms: _263  and  _264
REMARK  117  A    between atoms: _263  and  _266
REMARK  118  A    between atoms: _266  and  _267
REMARK  119  A    between atoms: _270  and  _272
REMARK  120  A    between atoms: _272  and  _273
REMARK  121  A    between atoms: _272  and  _275
REMARK  122  A    between atoms: _275  and  _276
REMARK  123  A    between atoms: _279  and  _281
REMARK  124  A    between atoms: _281  and  _282
REMARK  125  A    between atoms: _285  and  _287
REMARK  126  A    between atoms: _287  and  _288
REMARK  127  A    between atoms: _287  and  _290
REMARK  128  A    between atoms: _290  and  _291
REMARK  129  A    between atoms: _291  and  _292
REMARK  130  A    between atoms: _292  and  _293
REMARK  131  A    between atoms: _293  and  _294
REMARK  132  A    between atoms: _298  and  _300
REMARK  133  A    between atoms: _300  and  _301
REMARK  134  A    between atoms: _300  and  _303
REMARK  135  A    between atoms: _303  and  _304
REMARK  136  A    between atoms: _306  and  _308
REMARK  137  A    between atoms: _308  and  _309
REMARK  138  A    between atoms: _311  and  _313
REMARK  139  A    between atoms: _313  and  _314
REMARK  140  A    between atoms: _313  and  _316
REMARK  141  A    between atoms: _316  and  _317
REMARK  142  A    between atoms: _323  and  _325
REMARK  143  A    between atoms: _325  and  _326
REMARK  144  A    between atoms: _328  and  _330
REMARK  145  A    between atoms: _330  and  _331
REMARK  146  A    between atoms: _330  and  _333
REMARK  147  A    between atoms: _336  and  _338
REMARK  148  A    between atoms: _338  and  _339
REMARK  149  A    between atoms: _341  and  _343
REMARK  150  A    between atoms: _343  and  _344
REMARK  151  A    between atoms: _343  and  _346
REMARK  152  A    between atoms: _346  and  _347
REMARK  153  A    between atoms: _353  and  _355
REMARK  154  A    between atoms: _355  and  _356
REMARK  155  A    between atoms: _355  and  _358
REMARK  156  A    between atoms: _358  and  _359
REMARK  157  A    between atoms: _364  and  _365
REMARK  158  A    between atoms: _367  and  _369
REMARK  159  A    between atoms: _369  and  _370
REMARK  160  A    between atoms: _373  and  _375
REMARK  161  A    between atoms: _375  and  _376
REMARK  162  A    between atoms: _375  and  _378
REMARK  163  A    between atoms: _378  and  _379
REMARK  164  A    between atoms: _384  and  _385
REMARK  165  A    between atoms: _387  and  _389
REMARK  166  A    between atoms: _389  and  _390
REMARK  167  A    between atoms: _389  and  _392
REMARK  168  A    between atoms: _395  and  _397
REMARK  169  A    between atoms: _397  and  _398
REMARK  170  A    between atoms: _397  and  _400
REMARK  171  A    between atoms: _400  and  _401
REMARK  172  A    between atoms: _404  and  _406
REMARK  173  A    between atoms: _406  and  _407
REMARK  174  A    between atoms: _406  and  _409
REMARK  175  A    between atoms: _412  and  _414
REMARK  176  A    between atoms: _414  and  _415
REMARK  177  A    between atoms: _414  and  _417
REMARK  178  A    between atoms: _417  and  _418
REMARK  179  A    between atoms: _421  and  _423
REMARK  180  A    between atoms: _423  and  _424
REMARK  181  A    between atoms: _423  and  _426
REMARK  182  A    between atoms: _426  and  _427
REMARK  183  A    between atoms: _430  and  _432
REMARK  184  A    between atoms: _432  and  _433
REMARK  185  A    between atoms: _432  and  _435
REMARK  186  A    between atoms: _435  and  _436
REMARK  187  A    between atoms: _436  and  _437
REMARK  188  A    between atoms: _437  and  _438
REMARK  189  A    between atoms: _438  and  _439
REMARK  190  A    between atoms: _443  and  _445
REMARK  191  A    between atoms: _445  and  _446
REMARK  192  A    between atoms: _445  and  _448
REMARK  193  A    between atoms: _448  and  _449
REMARK  194  A    between atoms: _454  and  _456
REMARK  195  A    between atoms: _456  and  _457
REMARK  196  A    between atoms: _456  and  _459
REMARK  197  A    between atoms: _459  and  _460
REMARK  198  A    between atoms: _470  and  _472
REMARK  199  A    between atoms: _472  and  _473
REMARK  200  A    between atoms: _472  and  _475
REMARK  201  A    between atoms: _475  and  _476
REMARK  202  A    between atoms: _476  and  _477
REMARK  203  A    between atoms: _479  and  _481
REMARK  204  A    between atoms: _481  and  _482
REMARK  205  A    between atoms: _481  and  _484
REMARK  206  A    between atoms: _484  and  _485
REMARK  207  A    between atoms: _485  and  _486
REMARK  208  A    between atoms: _486  and  _487
REMARK  209  A    between atoms: _496  and  _498
REMARK  210  A    between atoms: _498  and  _499
REMARK  211  A    between atoms: _501  and  _503
REMARK  212  A    between atoms: _503  and  _504
REMARK  213  A    between atoms: _503  and  _506
REMARK  214  A    between atoms: _506  and  _507
REMARK  215  A    between atoms: _510  and  _512
REMARK  216  A    between atoms: _512  and  _513
REMARK  217  A    between atoms: _512  and  _515
REMARK  218  A    between atoms: _515  and  _516
REMARK  219  A    between atoms: _516  and  _517
REMARK  220  A    between atoms: _517  and  _518
REMARK  221  A    between atoms: _518  and  _519
REMARK  222  A    between atoms: _523  and  _525
REMARK  223  A    between atoms: _525  and  _526
REMARK  224  A    between atoms: _525  and  _528
REMARK  225  A    between atoms: _531  and  _533
REMARK  226  A    between atoms: _533  and  _534
REMARK  227  A    between atoms: _533  and  _536
REMARK  228  A    between atoms: _536  and  _537
REMARK  229  A    between atoms: _540  and  _542
REMARK  230  A    between atoms: _542  and  _543
REMARK  231  A    between atoms: _542  and  _545
REMARK  232  A    between atoms: _545  and  _546
REMARK                            x       y       z     vdW  Elec       q    Type
REMARK                         _______ _______ _______ _____ _____    ______ ____
ROOT
ATOM      1  O   HOH     1       4.550  38.091  -9.228  0.00  0.00    +0.000 OA
ENDROOT
TORSDOF 0
REMARK  Name = ../refined-set-2016/1yc1/1yc1_pocket.pdb
REMARK  232 active torsions:
REMARK  status: ('A' for Active; 'I' for Inactive)
REMARK    1  A    between atoms: _1  and  _3
REMARK    2  A    between atoms: _3  and  _4
REMARK    3  A    between atoms: _3  and  _6
REMARK    4  A    between atoms: _6  and  _7
REMARK    5  A    between atoms: _13  and  _15
REMARK    6  A    between atoms: _15  and  _16
REMARK    7  A    between atoms: _15  and  _18
REMARK    8  A    between atoms: _18  and  _19
REMARK    9  A    between atoms: _19  and  _20
REMARK   10  A    between atoms: _23  and  _25
REMARK   11  A    between atoms: _25  and  _26
REMARK   12  A    between atoms: _25  and  _28
REMARK   13  A    between atoms: _28  and  _29
REMARK   14  A    between atoms: _32  and  _34
REMARK   15  A    between atoms: _34  and  _35
REMARK   16  A    between atoms: _34  and  _37
REMARK   17  A    between atoms: _37  and  _38
REMARK   18  A    between atoms: _41  and  _43
REMARK   19  A    between atoms: _43  and  _44
REMARK   20  A    between atoms: _43  and  _46
REMARK   21  A    between atoms: _46  and  _47
REMARK   22  A    between atoms: _49  and  _51
REMARK   23  A    between atoms: _51  and  _52
REMARK   24  A    between atoms: _51  and  _54
REMARK   25  A    between atoms: _54  and  _55
REMARK   26  A    between atoms: _60  and  _62
REMARK   27  A    between atoms: _62  and  _63
REMARK   28  A    between atoms: _62  and  _65
REMARK   29  A    between atoms: _65  and  _66
REMARK   30  A    between atoms: _68  and  _70
REMARK   31  A    between atoms: _70  and  _71
REMARK   32  A    between atoms: _70  and  _73
REMARK   33  A    between atoms: _73  and  _74
REMARK   34  A    between atoms: _76  and  _78
REMARK   35  A    between atoms: _78  and  _79
REMARK   36  A    between atoms: _78  and  _81
REMARK   37  A    between atoms: _81  and  _82
REMARK   38  A    between atoms: _85  and  _87
REMARK   39  A    between atoms: _87  and  _88
REMARK   40  A    between atoms: _91  and  _93
REMARK   41  A    between atoms: _93  and  _94
REMARK   42  A    between atoms: _93  and  _96
REMARK   43  A    between atoms: _96  and  _97
REMARK   44  A    between atoms: _100  and  _102
REMARK   45  A    between atoms: _102  and  _103
REMARK   46  A    between atoms: _102  and  _105
REMARK   47  A    between atoms: _105  and  _106
REMARK   48  A    between atoms: _109  and  _111
REMARK   49  A    between atoms: _111  and  _112
REMARK   50  A    between atoms: _111  and  _114
REMARK   51  A    between atoms: _114  and  _115
REMARK   52  A    between atoms: _115  and  _116
REMARK   53  A    between atoms: _116  and  _117
REMARK   54  A    between atoms: _117  and  _118
REMARK   55  A    between atoms: _122  and  _124
REMARK   56  A    between atoms: _124  and  _125
REMARK   57  A    between atoms: _124  and  _127
REMARK   58  A    between atoms: _127  and  _128
REMARK   59  A    between atoms: _131  and  _133
REMARK   60  A    between atoms: _133  and  _134
REMARK   61  A    between atoms: _133  and  _136
REMARK   62  A    between atoms: _136  and  _137
REMARK   63  A    between atoms: _140  and  _142
REMARK   64  A    between atoms: _142  and  _143
REMARK   65  A    between atoms: _142  and  _145
REMARK   66  A    between atoms: _145  and  _146
REMARK   67  A    between atoms: _149  and  _151
REMARK   68  A    between atoms: _151  and  _152
REMARK   69  A    between atoms: _151  and  _154
REMARK   70  A    between atoms: _157  and  _159
REMARK   71  A    between atoms: _159  and  _160
REMARK   72  A    between atoms: _159  and  _162
REMARK   73  A    between atoms: _162  and  _163
REMARK   74  A    between atoms: _166  and  _168
REMARK   75  A    between atoms: _168  and  _169
REMARK   76  A    between atoms: _168  and  _171
REMARK   77  A    between atoms: _171  and  _172
REMARK   78  A    between atoms: _175  and  _177
REMARK   79  A    between atoms: _177  and  _178
REMARK   80  A    between atoms: _180  and  _182
REMARK   81  A    between atoms: _182  and  _183
REMARK   82  A    between atoms: _182  and  _185
REMARK   83  A    between atoms: _185  and  _186
REMARK   84  A    between atoms: _189  and  _191
REMARK   85  A    between atoms: _191  and  _192
REMARK   86  A    between atoms: _194  and  _196
REMARK   87  A    between atoms: _196  and  _197
REMARK   88  A    between atoms: _196  and  _199
REMARK   89  A    between atoms: _199  and  _200
REMARK   90  A    between atoms: _200  and  _201
REMARK   91  A    between atoms: _203  and  _205
REMARK   92  A    between atoms: _205  and  _206
REMARK   93  A    between atoms: _205  and  _208
REMARK   94  A    between atoms: _208  and  _209
REMARK   95  A    between atoms: _212  and  _214
REMARK   96  A    between atoms: _214  and  _215
REMARK   97  A    between atoms: _214  and  _217
REMARK   98  A    between atoms: _217  and  _218
REMARK   99  A    between atoms: _221  and  _223
REMARK  100  A    between atoms: _223  and  _224
REMARK  101  A    between atoms: _223  and  _226
REMARK  102  A    between atoms: _226  and  _227
REMARK  103  A    between atoms: _230  and  _232
REMARK  104  A    between atoms: _232  and  _233
REMARK  105  A    between atoms: _232  and  _235
REMARK  106  A    between atoms: _235  and  _236
REMARK  107  A    between atoms: _241  and  _243
REMARK  108  A    between atoms: _243  and  _244
REMARK  109  A    between atoms: _243  and  _246
REMARK  110  A    between atoms: _246  and  _247
REMARK  111  A    between atoms: _252  and  _254
REMARK  112  A    between atoms: _254  and  _255
REMARK  113  A    between atoms: _254  and  _257
REMARK  114  A    between atoms: _257  and  _258
REMARK  115  A    between atoms: _261  and  _263
REMARK  116  A    between atoms: _263  and  _264
REMARK  117  A    between atoms: _263  and  _266
REMARK  118  A    between atoms: _266  and  _267
REMARK  119  A    between atoms: _270  and  _272
REMARK  120  A    between atoms: _272  and  _273
REMARK  121  A    between atoms: _272  and  _275
REMARK  122  A    between atoms: _275  and  _276
REMARK  123  A    between atoms: _279  and  _281
REMARK  124  A    between atoms: _281  and  _282
REMARK  125  A    between atoms: _285  and  _287
REMARK  126  A    between atoms: _287  and  _288
REMARK  127  A    between atoms: _287  and  _290
REMARK  128  A    between atoms: _290  and  _291
REMARK  129  A    between atoms: _291  and  _292
REMARK  130  A    between atoms: _292  and  _293
REMARK  131  A    between atoms: _293  and  _294
REMARK  132  A    between atoms: _298  and  _300
REMARK  133  A    between atoms: _300  and  _301
REMARK  134  A    between atoms: _300  and  _303
REMARK  135  A    between atoms: _303  and  _304
REMARK  136  A    between atoms: _306  and  _308
REMARK  137  A    between atoms: _308  and  _309
REMARK  138  A    between atoms: _311  and  _313
REMARK  139  A    between atoms: _313  and  _314
REMARK  140  A    between atoms: _313  and  _316
REMARK  141  A    between atoms: _316  and  _317
REMARK  142  A    between atoms: _323  and  _325
REMARK  143  A    between atoms: _325  and  _326
REMARK  144  A    between atoms: _328  and  _330
REMARK  145  A    between atoms: _330  and  _331
REMARK  146  A    between atoms: _330  and  _333
REMARK  147  A    between atoms: _336  and  _338
REMARK  148  A    between atoms: _338  and  _339
REMARK  149  A    between atoms: _341  and  _343
REMARK  150  A    between atoms: _343  and  _344
REMARK  151  A    between atoms: _343  and  _346
REMARK  152  A    between atoms: _346  and  _347
REMARK  153  A    between atoms: _353  and  _355
REMARK  154  A    between atoms: _355  and  _356
REMARK  155  A    between atoms: _355  and  _358
REMARK  156  A    between atoms: _358  and  _359
REMARK  157  A    between atoms: _364  and  _365
REMARK  158  A    between atoms: _367  and  _369
REMARK  159  A    between atoms: _369  and  _370
REMARK  160  A    between atoms: _373  and  _375
REMARK  161  A    between atoms: _375  and  _376
REMARK  162  A    between atoms: _375  and  _378
REMARK  163  A    between atoms: _378  and  _379
REMARK  164  A    between atoms: _384  and  _385
REMARK  165  A    between atoms: _387  and  _389
REMARK  166  A    between atoms: _389  and  _390
REMARK  167  A    between atoms: _389  and  _392
REMARK  168  A    between atoms: _395  and  _397
REMARK  169  A    between atoms: _397  and  _398
REMARK  170  A    between atoms: _397  and  _400
REMARK  171  A    between atoms: _400  and  _401
REMARK  172  A    between atoms: _404  and  _406
REMARK  173  A    between atoms: _406  and  _407
REMARK  174  A    between atoms: _406  and  _409
REMARK  175  A    between atoms: _412  and  _414
REMARK  176  A    between atoms: _414  and  _415
REMARK  177  A    between atoms: _414  and  _417
REMARK  178  A    between atoms: _417  and  _418
REMARK  179  A    between atoms: _421  and  _423
REMARK  180  A    between atoms: _423  and  _424
REMARK  181  A    between atoms: _423  and  _426
REMARK  182  A    between atoms: _426  and  _427
REMARK  183  A    between atoms: _430  and  _432
REMARK  184  A    between atoms: _432  and  _433
REMARK  185  A    between atoms: _432  and  _435
REMARK  186  A    between atoms: _435  and  _436
REMARK  187  A    between atoms: _436  and  _437
REMARK  188  A    between atoms: _437  and  _438
REMARK  189  A    between atoms: _438  and  _439
REMARK  190  A    between atoms: _443  and  _445
REMARK  191  A    between atoms: _445  and  _446
REMARK  192  A    between atoms: _445  and  _448
REMARK  193  A    between atoms: _448  and  _449
REMARK  194  A    between atoms: _454  and  _456
REMARK  195  A    between atoms: _456  and  _457
REMARK  196  A    between atoms: _456  and  _459
REMARK  197  A    between atoms: _459  and  _460
REMARK  198  A    between atoms: _470  and  _472
REMARK  199  A    between atoms: _472  and  _473
REMARK  200  A    between atoms: _472  and  _475
REMARK  201  A    between atoms: _475  and  _476
REMARK  202  A    between atoms: _476  and  _477
REMARK  203  A    between atoms: _479  and  _481
REMARK  204  A    between atoms: _481  and  _482
REMARK  205  A    between atoms: _481  and  _484
REMARK  206  A    between atoms: _484  and  _485
REMARK  207  A    between atoms: _485  and  _486
REMARK  208  A    between atoms: _486  and  _487
REMARK  209  A    between atoms: _496  and  _498
REMARK  210  A    between atoms: _498  and  _499
REMARK  211  A    between atoms: _501  and  _503
REMARK  212  A    between atoms: _503  and  _504
REMARK  213  A    between atoms: _503  and  _506
REMARK  214  A    between atoms: _506  and  _507
REMARK  215  A    between atoms: _510  and  _512
REMARK  216  A    between atoms: _512  and  _513
REMARK  217  A    between atoms: _512  and  _515
REMARK  218  A    between atoms: _515  and  _516
REMARK  219  A    between atoms: _516  and  _517
REMARK  220  A    between atoms: _517  and  _518
REMARK  221  A    between atoms: _518  and  _519
REMARK  222  A    between atoms: _523  and  _525
REMARK  223  A    between atoms: _525  and  _526
REMARK  224  A    between atoms: _525  and  _528
REMARK  225  A    between atoms: _531  and  _533
REMARK  226  A    between atoms: _533  and  _534
REMARK  227  A    between atoms: _533  and  _536
REMARK  228  A    between atoms: _536  and  _537
REMARK  229  A    between atoms: _540  and  _542
REMARK  230  A    between atoms: _542  and  _543
REMARK  231  A    between atoms: _542  and  _545
REMARK  232  A    between atoms: _545  and  _546
REMARK                            x       y       z     vdW  Elec       q    Type
REMARK                         _______ _______ _______ _____ _____    ______ ____
ROOT
ATOM      1  O   HOH     1       4.472  37.203 -12.307  0.00  0.00    +0.000 OA
ENDROOT
TORSDOF 0
REMARK  Name = ../refined-set-2016/1yc1/1yc1_pocket.pdb
REMARK  232 active torsions:
REMARK  status: ('A' for Active; 'I' for Inactive)
REMARK    1  A    between atoms: _1  and  _3
REMARK    2  A    between atoms: _3  and  _4
REMARK    3  A    between atoms: _3  and  _6
REMARK    4  A    between atoms: _6  and  _7
REMARK    5  A    between atoms: _13  and  _15
REMARK    6  A    between atoms: _15  and  _16
REMARK    7  A    between atoms: _15  and  _18
REMARK    8  A    between atoms: _18  and  _19
REMARK    9  A    between atoms: _19  and  _20
REMARK   10  A    between atoms: _23  and  _25
REMARK   11  A    between atoms: _25  and  _26
REMARK   12  A    between atoms: _25  and  _28
REMARK   13  A    between atoms: _28  and  _29
REMARK   14  A    between atoms: _32  and  _34
REMARK   15  A    between atoms: _34  and  _35
REMARK   16  A    between atoms: _34  and  _37
REMARK   17  A    between atoms: _37  and  _38
REMARK   18  A    between atoms: _41  and  _43
REMARK   19  A    between atoms: _43  and  _44
REMARK   20  A    between atoms: _43  and  _46
REMARK   21  A    between atoms: _46  and  _47
REMARK   22  A    between atoms: _49  and  _51
REMARK   23  A    between atoms: _51  and  _52
REMARK   24  A    between atoms: _51  and  _54
REMARK   25  A    between atoms: _54  and  _55
REMARK   26  A    between atoms: _60  and  _62
REMARK   27  A    between atoms: _62  and  _63
REMARK   28  A    between atoms: _62  and  _65
REMARK   29  A    between atoms: _65  and  _66
REMARK   30  A    between atoms: _68  and  _70
REMARK   31  A    between atoms: _70  and  _71
REMARK   32  A    between atoms: _70  and  _73
REMARK   33  A    between atoms: _73  and  _74
REMARK   34  A    between atoms: _76  and  _78
REMARK   35  A    between atoms: _78  and  _79
REMARK   36  A    between atoms: _78  and  _81
REMARK   37  A    between atoms: _81  and  _82
REMARK   38  A    between atoms: _85  and  _87
REMARK   39  A    between atoms: _87  and  _88
REMARK   40  A    between atoms: _91  and  _93
REMARK   41  A    between atoms: _93  and  _94
REMARK   42  A    between atoms: _93  and  _96
REMARK   43  A    between atoms: _96  and  _97
REMARK   44  A    between atoms: _100  and  _102
REMARK   45  A    between atoms: _102  and  _103
REMARK   46  A    between atoms: _102  and  _105
REMARK   47  A    between atoms: _105  and  _106
REMARK   48  A    between atoms: _109  and  _111
REMARK   49  A    between atoms: _111  and  _112
REMARK   50  A    between atoms: _111  and  _114
REMARK   51  A    between atoms: _114  and  _115
REMARK   52  A    between atoms: _115  and  _116
REMARK   53  A    between atoms: _116  and  _117
REMARK   54  A    between atoms: _117  and  _118
REMARK   55  A    between atoms: _122  and  _124
REMARK   56  A    between atoms: _124  and  _125
REMARK   57  A    between atoms: _124  and  _127
REMARK   58  A    between atoms: _127  and  _128
REMARK   59  A    between atoms: _131  and  _133
REMARK   60  A    between atoms: _133  and  _134
REMARK   61  A    between atoms: _133  and  _136
REMARK   62  A    between atoms: _136  and  _137
REMARK   63  A    between atoms: _140  and  _142
REMARK   64  A    between atoms: _142  and  _143
REMARK   65  A    between atoms: _142  and  _145
REMARK   66  A    between atoms: _145  and  _146
REMARK   67  A    between atoms: _149  and  _151
REMARK   68  A    between atoms: _151  and  _152
REMARK   69  A    between atoms: _151  and  _154
REMARK   70  A    between atoms: _157  and  _159
REMARK   71  A    between atoms: _159  and  _160
REMARK   72  A    between atoms: _159  and  _162
REMARK   73  A    between atoms: _162  and  _163
REMARK   74  A    between atoms: _166  and  _168
REMARK   75  A    between atoms: _168  and  _169
REMARK   76  A    between atoms: _168  and  _171
REMARK   77  A    between atoms: _171  and  _172
REMARK   78  A    between atoms: _175  and  _177
REMARK   79  A    between atoms: _177  and  _178
REMARK   80  A    between atoms: _180  and  _182
REMARK   81  A    between atoms: _182  and  _183
REMARK   82  A    between atoms: _182  and  _185
REMARK   83  A    between atoms: _185  and  _186
REMARK   84  A    between atoms: _189  and  _191
REMARK   85  A    between atoms: _191  and  _192
REMARK   86  A    between atoms: _194  and  _196
REMARK   87  A    between atoms: _196  and  _197
REMARK   88  A    between atoms: _196  and  _199
REMARK   89  A    between atoms: _199  and  _200
REMARK   90  A    between atoms: _200  and  _201
REMARK   91  A    between atoms: _203  and  _205
REMARK   92  A    between atoms: _205  and  _206
REMARK   93  A    between atoms: _205  and  _208
REMARK   94  A    between atoms: _208  and  _209
REMARK   95  A    between atoms: _212  and  _214
REMARK   96  A    between atoms: _214  and  _215
REMARK   97  A    between atoms: _214  and  _217
REMARK   98  A    between atoms: _217  and  _218
REMARK   99  A    between atoms: _221  and  _223
REMARK  100  A    between atoms: _223  and  _224
REMARK  101  A    between atoms: _223  and  _226
REMARK  102  A    between atoms: _226  and  _227
REMARK  103  A    between atoms: _230  and  _232
REMARK  104  A    between atoms: _232  and  _233
REMARK  105  A    between atoms: _232  and  _235
REMARK  106  A    between atoms: _235  and  _236
REMARK  107  A    between atoms: _241  and  _243
REMARK  108  A    between atoms: _243  and  _244
REMARK  109  A    between atoms: _243  and  _246
REMARK  110  A    between atoms: _246  and  _247
REMARK  111  A    between atoms: _252  and  _254
REMARK  112  A    between atoms: _254  and  _255
REMARK  113  A    between atoms: _254  and  _257
REMARK  114  A    between atoms: _257  and  _258
REMARK  115  A    between atoms: _261  and  _263
REMARK  116  A    between atoms: _263  and  _264
REMARK  117  A    between atoms: _263  and  _266
REMARK  118  A    between atoms: _266  and  _267
REMARK  119  A    between atoms: _270  and  _272
REMARK  120  A    between atoms: _272  and  _273
REMARK  121  A    between atoms: _272  and  _275
REMARK  122  A    between atoms: _275  and  _276
REMARK  123  A    between atoms: _279  and  _281
REMARK  124  A    between atoms: _281  and  _282
REMARK  125  A    between atoms: _285  and  _287
REMARK  126  A    between atoms: _287  and  _288
REMARK  127  A    between atoms: _287  and  _290
REMARK  128  A    between atoms: _290  and  _291
REMARK  129  A    between atoms: _291  and  _292
REMARK  130  A    between atoms: _292  and  _293
REMARK  131  A    between atoms: _293  and  _294
REMARK  132  A    between atoms: _298  and  _300
REMARK  133  A    between atoms: _300  and  _301
REMARK  134  A    between atoms: _300  and  _303
REMARK  135  A    between atoms: _303  and  _304
REMARK  136  A    between atoms: _306  and  _308
REMARK  137  A    between atoms: _308  and  _309
REMARK  138  A    between atoms: _311  and  _313
REMARK  139  A    between atoms: _313  and  _314
REMARK  140  A    between atoms: _313  and  _316
REMARK  141  A    between atoms: _316  and  _317
REMARK  142  A    between atoms: _323  and  _325
REMARK  143  A    between atoms: _325  and  _326
REMARK  144  A    between atoms: _328  and  _330
REMARK  145  A    between atoms: _330  and  _331
REMARK  146  A    between atoms: _330  and  _333
REMARK  147  A    between atoms: _336  and  _338
REMARK  148  A    between atoms: _338  and  _339
REMARK  149  A    between atoms: _341  and  _343
REMARK  150  A    between atoms: _343  and  _344
REMARK  151  A    between atoms: _343  and  _346
REMARK  152  A    between atoms: _346  and  _347
REMARK  153  A    between atoms: _353  and  _355
REMARK  154  A    between atoms: _355  and  _356
REMARK  155  A    between atoms: _355  and  _358
REMARK  156  A    between atoms: _358  and  _359
REMARK  157  A    between atoms: _364  and  _365
REMARK  158  A    between atoms: _367  and  _369
REMARK  159  A    between atoms: _369  and  _370
REMARK  160  A    between atoms: _373  and  _375
REMARK  161  A    between atoms: _375  and  _376
REMARK  162  A    between atoms: _375  and  _378
REMARK  163  A    between atoms: _378  and  _379
REMARK  164  A    between atoms: _384  and  _385
REMARK  165  A    between atoms: _387  and  _389
REMARK  166  A    between atoms: _389  and  _390
REMARK  167  A    between atoms: _389  and  _392
REMARK  168  A    between atoms: _395  and  _397
REMARK  169  A    between atoms: _397  and  _398
REMARK  170  A    between atoms: _397  and  _400
REMARK  171  A    between atoms: _400  and  _401
REMARK  172  A    between atoms: _404  and  _406
REMARK  173  A    between atoms: _406  and  _407
REMARK  174  A    between atoms: _406  and  _409
REMARK  175  A    between atoms: _412  and  _414
REMARK  176  A    between atoms: _414  and  _415
REMARK  177  A    between atoms: _414  and  _417
REMARK  178  A    between atoms: _417  and  _418
REMARK  179  A    between atoms: _421  and  _423
REMARK  180  A    between atoms: _423  and  _424
REMARK  181  A    between atoms: _423  and  _426
REMARK  182  A    between atoms: _426  and  _427
REMARK  183  A    between atoms: _430  and  _432
REMARK  184  A    between atoms: _432  and  _433
REMARK  185  A    between atoms: _432  and  _435
REMARK  186  A    between atoms: _435  and  _436
REMARK  187  A    between atoms: _436  and  _437
REMARK  188  A    between atoms: _437  and  _438
REMARK  189  A    between atoms: _438  and  _439
REMARK  190  A    between atoms: _443  and  _445
REMARK  191  A    between atoms: _445  and  _446
REMARK  192  A    between atoms: _445  and  _448
REMARK  193  A    between atoms: _448  and  _449
REMARK  194  A    between atoms: _454  and  _456
REMARK  195  A    between atoms: _456  and  _457
REMARK  196  A    between atoms: _456  and  _459
REMARK  197  A    between atoms: _459  and  _460
REMARK  198  A    between atoms: _470  and  _472
REMARK  199  A    between atoms: _472  and  _473
REMARK  200  A    between atoms: _472  and  _475
REMARK  201  A    between atoms: _475  and  _476
REMARK  202  A    between atoms: _476  and  _477
REMARK  203  A    between atoms: _479  and  _481
REMARK  204  A    between atoms: _481  and  _482
REMARK  205  A    between atoms: _481  and  _484
REMARK  206  A    between atoms: _484  and  _485
REMARK  207  A    between atoms: _485  and  _486
REMARK  208  A    between atoms: _486  and  _487
REMARK  209  A    between atoms: _496  and  _498
REMARK  210  A    between atoms: _498  and  _499
REMARK  211  A    between atoms: _501  and  _503
REMARK  212  A    between atoms: _503  and  _504
REMARK  213  A    between atoms: _503  and  _506
REMARK  214  A    between atoms: _506  and  _507
REMARK  215  A    between atoms: _510  and  _512
REMARK  216  A    between atoms: _512  and  _513
REMARK  217  A    between atoms: _512  and  _515
REMARK  218  A    between atoms: _515  and  _516
REMARK  219  A    between atoms: _516  and  _517
REMARK  220  A    between atoms: _517  and  _518
REMARK  221  A    between atoms: _518  and  _519
REMARK  222  A    between atoms: _523  and  _525
REMARK  223  A    between atoms: _525  and  _526
REMARK  224  A    between atoms: _525  and  _528
REMARK  225  A    between atoms: _531  and  _533
REMARK  226  A    between atoms: _533  and  _534
REMARK  227  A    between atoms: _533  and  _536
REMARK  228  A    between atoms: _536  and  _537
REMARK  229  A    between atoms: _540  and  _542
REMARK  230  A    between atoms: _542  and  _543
REMARK  231  A    between atoms: _542  and  _545
REMARK  232  A    between atoms: _545  and  _546
REMARK                            x       y       z     vdW  Elec       q    Type
REMARK                         _______ _______ _______ _____ _____    ______ ____
ROOT
ATOM      1  O   HOH     1      -1.025  36.328 -16.124  0.00  0.00    +0.000 OA
ENDROOT
TORSDOF 0
REMARK  Name = ../refined-set-2016/1yc1/1yc1_pocket.pdb
REMARK  232 active torsions:
REMARK  status: ('A' for Active; 'I' for Inactive)
REMARK    1  A    between atoms: _1  and  _3
REMARK    2  A    between atoms: _3  and  _4
REMARK    3  A    between atoms: _3  and  _6
REMARK    4  A    between atoms: _6  and  _7
REMARK    5  A    between atoms: _13  and  _15
REMARK    6  A    between atoms: _15  and  _16
REMARK    7  A    between atoms: _15  and  _18
REMARK    8  A    between atoms: _18  and  _19
REMARK    9  A    between atoms: _19  and  _20
REMARK   10  A    between atoms: _23  and  _25
REMARK   11  A    between atoms: _25  and  _26
REMARK   12  A    between atoms: _25  and  _28
REMARK   13  A    between atoms: _28  and  _29
REMARK   14  A    between atoms: _32  and  _34
REMARK   15  A    between atoms: _34  and  _35
REMARK   16  A    between atoms: _34  and  _37
REMARK   17  A    between atoms: _37  and  _38
REMARK   18  A    between atoms: _41  and  _43
REMARK   19  A    between atoms: _43  and  _44
REMARK   20  A    between atoms: _43  and  _46
REMARK   21  A    between atoms: _46  and  _47
REMARK   22  A    between atoms: _49  and  _51
REMARK   23  A    between atoms: _51  and  _52
REMARK   24  A    between atoms: _51  and  _54
REMARK   25  A    between atoms: _54  and  _55
REMARK   26  A    between atoms: _60  and  _62
REMARK   27  A    between atoms: _62  and  _63
REMARK   28  A    between atoms: _62  and  _65
REMARK   29  A    between atoms: _65  and  _66
REMARK   30  A    between atoms: _68  and  _70
REMARK   31  A    between atoms: _70  and  _71
REMARK   32  A    between atoms: _70  and  _73
REMARK   33  A    between atoms: _73  and  _74
REMARK   34  A    between atoms: _76  and  _78
REMARK   35  A    between atoms: _78  and  _79
REMARK   36  A    between atoms: _78  and  _81
REMARK   37  A    between atoms: _81  and  _82
REMARK   38  A    between atoms: _85  and  _87
REMARK   39  A    between atoms: _87  and  _88
REMARK   40  A    between atoms: _91  and  _93
REMARK   41  A    between atoms: _93  and  _94
REMARK   42  A    between atoms: _93  and  _96
REMARK   43  A    between atoms: _96  and  _97
REMARK   44  A    between atoms: _100  and  _102
REMARK   45  A    between atoms: _102  and  _103
REMARK   46  A    between atoms: _102  and  _105
REMARK   47  A    between atoms: _105  and  _106
REMARK   48  A    between atoms: _109  and  _111
REMARK   49  A    between atoms: _111  and  _112
REMARK   50  A    between atoms: _111  and  _114
REMARK   51  A    between atoms: _114  and  _115
REMARK   52  A    between atoms: _115  and  _116
REMARK   53  A    between atoms: _116  and  _117
REMARK   54  A    between atoms: _117  and  _118
REMARK   55  A    between atoms: _122  and  _124
REMARK   56  A    between atoms: _124  and  _125
REMARK   57  A    between atoms: _124  and  _127
REMARK   58  A    between atoms: _127  and  _128
REMARK   59  A    between atoms: _131  and  _133
REMARK   60  A    between atoms: _133  and  _134
REMARK   61  A    between atoms: _133  and  _136
REMARK   62  A    between atoms: _136  and  _137
REMARK   63  A    between atoms: _140  and  _142
REMARK   64  A    between atoms: _142  and  _143
REMARK   65  A    between atoms: _142  and  _145
REMARK   66  A    between atoms: _145  and  _146
REMARK   67  A    between atoms: _149  and  _151
REMARK   68  A    between atoms: _151  and  _152
REMARK   69  A    between atoms: _151  and  _154
REMARK   70  A    between atoms: _157  and  _159
REMARK   71  A    between atoms: _159  and  _160
REMARK   72  A    between atoms: _159  and  _162
REMARK   73  A    between atoms: _162  and  _163
REMARK   74  A    between atoms: _166  and  _168
REMARK   75  A    between atoms: _168  and  _169
REMARK   76  A    between atoms: _168  and  _171
REMARK   77  A    between atoms: _171  and  _172
REMARK   78  A    between atoms: _175  and  _177
REMARK   79  A    between atoms: _177  and  _178
REMARK   80  A    between atoms: _180  and  _182
REMARK   81  A    between atoms: _182  and  _183
REMARK   82  A    between atoms: _182  and  _185
REMARK   83  A    between atoms: _185  and  _186
REMARK   84  A    between atoms: _189  and  _191
REMARK   85  A    between atoms: _191  and  _192
REMARK   86  A    between atoms: _194  and  _196
REMARK   87  A    between atoms: _196  and  _197
REMARK   88  A    between atoms: _196  and  _199
REMARK   89  A    between atoms: _199  and  _200
REMARK   90  A    between atoms: _200  and  _201
REMARK   91  A    between atoms: _203  and  _205
REMARK   92  A    between atoms: _205  and  _206
REMARK   93  A    between atoms: _205  and  _208
REMARK   94  A    between atoms: _208  and  _209
REMARK   95  A    between atoms: _212  and  _214
REMARK   96  A    between atoms: _214  and  _215
REMARK   97  A    between atoms: _214  and  _217
REMARK   98  A    between atoms: _217  and  _218
REMARK   99  A    between atoms: _221  and  _223
REMARK  100  A    between atoms: _223  and  _224
REMARK  101  A    between atoms: _223  and  _226
REMARK  102  A    between atoms: _226  and  _227
REMARK  103  A    between atoms: _230  and  _232
REMARK  104  A    between atoms: _232  and  _233
REMARK  105  A    between atoms: _232  and  _235
REMARK  106  A    between atoms: _235  and  _236
REMARK  107  A    between atoms: _241  and  _243
REMARK  108  A    between atoms: _243  and  _244
REMARK  109  A    between atoms: _243  and  _246
REMARK  110  A    between atoms: _246  and  _247
REMARK  111  A    between atoms: _252  and  _254
REMARK  112  A    between atoms: _254  and  _255
REMARK  113  A    between atoms: _254  and  _257
REMARK  114  A    between atoms: _257  and  _258
REMARK  115  A    between atoms: _261  and  _263
REMARK  116  A    between atoms: _263  and  _264
REMARK  117  A    between atoms: _263  and  _266
REMARK  118  A    between atoms: _266  and  _267
REMARK  119  A    between atoms: _270  and  _272
REMARK  120  A    between atoms: _272  and  _273
REMARK  121  A    between atoms: _272  and  _275
REMARK  122  A    between atoms: _275  and  _276
REMARK  123  A    between atoms: _279  and  _281
REMARK  124  A    between atoms: _281  and  _282
REMARK  125  A    between atoms: _285  and  _287
REMARK  126  A    between atoms: _287  and  _288
REMARK  127  A    between atoms: _287  and  _290
REMARK  128  A    between atoms: _290  and  _291
REMARK  129  A    between atoms: _291  and  _292
REMARK  130  A    between atoms: _292  and  _293
REMARK  131  A    between atoms: _293  and  _294
REMARK  132  A    between atoms: _298  and  _300
REMARK  133  A    between atoms: _300  and  _301
REMARK  134  A    between atoms: _300  and  _303
REMARK  135  A    between atoms: _303  and  _304
REMARK  136  A    between atoms: _306  and  _308
REMARK  137  A    between atoms: _308  and  _309
REMARK  138  A    between atoms: _311  and  _313
REMARK  139  A    between atoms: _313  and  _314
REMARK  140  A    between atoms: _313  and  _316
REMARK  141  A    between atoms: _316  and  _317
REMARK  142  A    between atoms: _323  and  _325
REMARK  143  A    between atoms: _325  and  _326
REMARK  144  A    between atoms: _328  and  _330
REMARK  145  A    between atoms: _330  and  _331
REMARK  146  A    between atoms: _330  and  _333
REMARK  147  A    between atoms: _336  and  _338
REMARK  148  A    between atoms: _338  and  _339
REMARK  149  A    between atoms: _341  and  _343
REMARK  150  A    between atoms: _343  and  _344
REMARK  151  A    between atoms: _343  and  _346
REMARK  152  A    between atoms: _346  and  _347
REMARK  153  A    between atoms: _353  and  _355
REMARK  154  A    between atoms: _355  and  _356
REMARK  155  A    between atoms: _355  and  _358
REMARK  156  A    between atoms: _358  and  _359
REMARK  157  A    between atoms: _364  and  _365
REMARK  158  A    between atoms: _367  and  _369
REMARK  159  A    between atoms: _369  and  _370
REMARK  160  A    between atoms: _373  and  _375
REMARK  161  A    between atoms: _375  and  _376
REMARK  162  A    between atoms: _375  and  _378
REMARK  163  A    between atoms: _378  and  _379
REMARK  164  A    between atoms: _384  and  _385
REMARK  165  A    between atoms: _387  and  _389
REMARK  166  A    between atoms: _389  and  _390
REMARK  167  A    between atoms: _389  and  _392
REMARK  168  A    between atoms: _395  and  _397
REMARK  169  A    between atoms: _397  and  _398
REMARK  170  A    between atoms: _397  and  _400
REMARK  171  A    between atoms: _400  and  _401
REMARK  172  A    between atoms: _404  and  _406
REMARK  173  A    between atoms: _406  and  _407
REMARK  174  A    between atoms: _406  and  _409
REMARK  175  A    between atoms: _412  and  _414
REMARK  176  A    between atoms: _414  and  _415
REMARK  177  A    between atoms: _414  and  _417
REMARK  178  A    between atoms: _417  and  _418
REMARK  179  A    between atoms: _421  and  _423
REMARK  180  A    between atoms: _423  and  _424
REMARK  181  A    between atoms: _423  and  _426
REMARK  182  A    between atoms: _426  and  _427
REMARK  183  A    between atoms: _430  and  _432
REMARK  184  A    between atoms: _432  and  _433
REMARK  185  A    between atoms: _432  and  _435
REMARK  186  A    between atoms: _435  and  _436
REMARK  187  A    between atoms: _436  and  _437
REMARK  188  A    between atoms: _437  and  _438
REMARK  189  A    between atoms: _438  and  _439
REMARK  190  A    between atoms: _443  and  _445
REMARK  191  A    between atoms: _445  and  _446
REMARK  192  A    between atoms: _445  and  _448
REMARK  193  A    between atoms: _448  and  _449
REMARK  194  A    between atoms: _454  and  _456
REMARK  195  A    between atoms: _456  and  _457
REMARK  196  A    between atoms: _456  and  _459
REMARK  197  A    between atoms: _459  and  _460
REMARK  198  A    between atoms: _470  and  _472
REMARK  199  A    between atoms: _472  and  _473
REMARK  200  A    between atoms: _472  and  _475
REMARK  201  A    between atoms: _475  and  _476
REMARK  202  A    between atoms: _476  and  _477
REMARK  203  A    between atoms: _479  and  _481
REMARK  204  A    between atoms: _481  and  _482
REMARK  205  A    between atoms: _481  and  _484
REMARK  206  A    between atoms: _484  and  _485
REMARK  207  A    between atoms: _485  and  _486
REMARK  208  A    between atoms: _486  and  _487
REMARK  209  A    between atoms: _496  and  _498
REMARK  210  A    between atoms: _498  and  _499
REMARK  211  A    between atoms: _501  and  _503
REMARK  212  A    between atoms: _503  and  _504
REMARK  213  A    between atoms: _503  and  _506
REMARK  214  A    between atoms: _506  and  _507
REMARK  215  A    between atoms: _510  and  _512
REMARK  216  A    between atoms: _512  and  _513
REMARK  217  A    between atoms: _512  and  _515
REMARK  218  A    between atoms: _515  and  _516
REMARK  219  A    between atoms: _516  and  _517
REMARK  220  A    between atoms: _517  and  _518
REMARK  221  A    between atoms: _518  and  _519
REMARK  222  A    between atoms: _523  and  _525
REMARK  223  A    between atoms: _525  and  _526
REMARK  224  A    between atoms: _525  and  _528
REMARK  225  A    between atoms: _531  and  _533
REMARK  226  A    between atoms: _533  and  _534
REMARK  227  A    between atoms: _533  and  _536
REMARK  228  A    between atoms: _536  and  _537
REMARK  229  A    between atoms: _540  and  _542
REMARK  230  A    between atoms: _542  and  _543
REMARK  231  A    between atoms: _542  and  _545
REMARK  232  A    between atoms: _545  and  _546
REMARK                            x       y       z     vdW  Elec       q    Type
REMARK                         _______ _______ _______ _____ _____    ______ ____
ROOT
ATOM      1  O   HOH     1       2.764  34.354 -14.946  0.00  0.00    +0.000 OA
ENDROOT
TORSDOF 0
REMARK  Name = ../refined-set-2016/1yc1/1yc1_pocket.pdb
REMARK  232 active torsions:
REMARK  status: ('A' for Active; 'I' for Inactive)
REMARK    1  A    between atoms: _1  and  _3
REMARK    2  A    between atoms: _3  and  _4
REMARK    3  A    between atoms: _3  and  _6
REMARK    4  A    between atoms: _6  and  _7
REMARK    5  A    between atoms: _13  and  _15
REMARK    6  A    between atoms: _15  and  _16
REMARK    7  A    between atoms: _15  and  _18
REMARK    8  A    between atoms: _18  and  _19
REMARK    9  A    between atoms: _19  and  _20
REMARK   10  A    between atoms: _23  and  _25
REMARK   11  A    between atoms: _25  and  _26
REMARK   12  A    between atoms: _25  and  _28
REMARK   13  A    between atoms: _28  and  _29
REMARK   14  A    between atoms: _32  and  _34
REMARK   15  A    between atoms: _34  and  _35
REMARK   16  A    between atoms: _34  and  _37
REMARK   17  A    between atoms: _37  and  _38
REMARK   18  A    between atoms: _41  and  _43
REMARK   19  A    between atoms: _43  and  _44
REMARK   20  A    between atoms: _43  and  _46
REMARK   21  A    between atoms: _46  and  _47
REMARK   22  A    between atoms: _49  and  _51
REMARK   23  A    between atoms: _51  and  _52
REMARK   24  A    between atoms: _51  and  _54
REMARK   25  A    between atoms: _54  and  _55
REMARK   26  A    between atoms: _60  and  _62
REMARK   27  A    between atoms: _62  and  _63
REMARK   28  A    between atoms: _62  and  _65
REMARK   29  A    between atoms: _65  and  _66
REMARK   30  A    between atoms: _68  and  _70
REMARK   31  A    between atoms: _70  and  _71
REMARK   32  A    between atoms: _70  and  _73
REMARK   33  A    between atoms: _73  and  _74
REMARK   34  A    between atoms: _76  and  _78
REMARK   35  A    between atoms: _78  and  _79
REMARK   36  A    between atoms: _78  and  _81
REMARK   37  A    between atoms: _81  and  _82
REMARK   38  A    between atoms: _85  and  _87
REMARK   39  A    between atoms: _87  and  _88
REMARK   40  A    between atoms: _91  and  _93
REMARK   41  A    between atoms: _93  and  _94
REMARK   42  A    between atoms: _93  and  _96
REMARK   43  A    between atoms: _96  and  _97
REMARK   44  A    between atoms: _100  and  _102
REMARK   45  A    between atoms: _102  and  _103
REMARK   46  A    between atoms: _102  and  _105
REMARK   47  A    between atoms: _105  and  _106
REMARK   48  A    between atoms: _109  and  _111
REMARK   49  A    between atoms: _111  and  _112
REMARK   50  A    between atoms: _111  and  _114
REMARK   51  A    between atoms: _114  and  _115
REMARK   52  A    between atoms: _115  and  _116
REMARK   53  A    between atoms: _116  and  _117
REMARK   54  A    between atoms: _117  and  _118
REMARK   55  A    between atoms: _122  and  _124
REMARK   56  A    between atoms: _124  and  _125
REMARK   57  A    between atoms: _124  and  _127
REMARK   58  A    between atoms: _127  and  _128
REMARK   59  A    between atoms: _131  and  _133
REMARK   60  A    between atoms: _133  and  _134
REMARK   61  A    between atoms: _133  and  _136
REMARK   62  A    between atoms: _136  and  _137
REMARK   63  A    between atoms: _140  and  _142
REMARK   64  A    between atoms: _142  and  _143
REMARK   65  A    between atoms: _142  and  _145
REMARK   66  A    between atoms: _145  and  _146
REMARK   67  A    between atoms: _149  and  _151
REMARK   68  A    between atoms: _151  and  _152
REMARK   69  A    between atoms: _151  and  _154
REMARK   70  A    between atoms: _157  and  _159
REMARK   71  A    between atoms: _159  and  _160
REMARK   72  A    between atoms: _159  and  _162
REMARK   73  A    between atoms: _162  and  _163
REMARK   74  A    between atoms: _166  and  _168
REMARK   75  A    between atoms: _168  and  _169
REMARK   76  A    between atoms: _168  and  _171
REMARK   77  A    between atoms: _171  and  _172
REMARK   78  A    between atoms: _175  and  _177
REMARK   79  A    between atoms: _177  and  _178
REMARK   80  A    between atoms: _180  and  _182
REMARK   81  A    between atoms: _182  and  _183
REMARK   82  A    between atoms: _182  and  _185
REMARK   83  A    between atoms: _185  and  _186
REMARK   84  A    between atoms: _189  and  _191
REMARK   85  A    between atoms: _191  and  _192
REMARK   86  A    between atoms: _194  and  _196
REMARK   87  A    between atoms: _196  and  _197
REMARK   88  A    between atoms: _196  and  _199
REMARK   89  A    between atoms: _199  and  _200
REMARK   90  A    between atoms: _200  and  _201
REMARK   91  A    between atoms: _203  and  _205
REMARK   92  A    between atoms: _205  and  _206
REMARK   93  A    between atoms: _205  and  _208
REMARK   94  A    between atoms: _208  and  _209
REMARK   95  A    between atoms: _212  and  _214
REMARK   96  A    between atoms: _214  and  _215
REMARK   97  A    between atoms: _214  and  _217
REMARK   98  A    between atoms: _217  and  _218
REMARK   99  A    between atoms: _221  and  _223
REMARK  100  A    between atoms: _223  and  _224
REMARK  101  A    between atoms: _223  and  _226
REMARK  102  A    between atoms: _226  and  _227
REMARK  103  A    between atoms: _230  and  _232
REMARK  104  A    between atoms: _232  and  _233
REMARK  105  A    between atoms: _232  and  _235
REMARK  106  A    between atoms: _235  and  _236
REMARK  107  A    between atoms: _241  and  _243
REMARK  108  A    between atoms: _243  and  _244
REMARK  109  A    between atoms: _243  and  _246
REMARK  110  A    between atoms: _246  and  _247
REMARK  111  A    between atoms: _252  and  _254
REMARK  112  A    between atoms: _254  and  _255
REMARK  113  A    between atoms: _254  and  _257
REMARK  114  A    between atoms: _257  and  _258
REMARK  115  A    between atoms: _261  and  _263
REMARK  116  A    between atoms: _263  and  _264
REMARK  117  A    between atoms: _263  and  _266
REMARK  118  A    between atoms: _266  and  _267
REMARK  119  A    between atoms: _270  and  _272
REMARK  120  A    between atoms: _272  and  _273
REMARK  121  A    between atoms: _272  and  _275
REMARK  122  A    between atoms: _275  and  _276
REMARK  123  A    between atoms: _279  and  _281
REMARK  124  A    between atoms: _281  and  _282
REMARK  125  A    between atoms: _285  and  _287
REMARK  126  A    between atoms: _287  and  _288
REMARK  127  A    between atoms: _287  and  _290
REMARK  128  A    between atoms: _290  and  _291
REMARK  129  A    between atoms: _291  and  _292
REMARK  130  A    between atoms: _292  and  _293
REMARK  131  A    between atoms: _293  and  _294
REMARK  132  A    between atoms: _298  and  _300
REMARK  133  A    between atoms: _300  and  _301
REMARK  134  A    between atoms: _300  and  _303
REMARK  135  A    between atoms: _303  and  _304
REMARK  136  A    between atoms: _306  and  _308
REMARK  137  A    between atoms: _308  and  _309
REMARK  138  A    between atoms: _311  and  _313
REMARK  139  A    between atoms: _313  and  _314
REMARK  140  A    between atoms: _313  and  _316
REMARK  141  A    between atoms: _316  and  _317
REMARK  142  A    between atoms: _323  and  _325
REMARK  143  A    between atoms: _325  and  _326
REMARK  144  A    between atoms: _328  and  _330
REMARK  145  A    between atoms: _330  and  _331
REMARK  146  A    between atoms: _330  and  _333
REMARK  147  A    between atoms: _336  and  _338
REMARK  148  A    between atoms: _338  and  _339
REMARK  149  A    between atoms: _341  and  _343
REMARK  150  A    between atoms: _343  and  _344
REMARK  151  A    between atoms: _343  and  _346
REMARK  152  A    between atoms: _346  and  _347
REMARK  153  A    between atoms: _353  and  _355
REMARK  154  A    between atoms: _355  and  _356
REMARK  155  A    between atoms: _355  and  _358
REMARK  156  A    between atoms: _358  and  _359
REMARK  157  A    between atoms: _364  and  _365
REMARK  158  A    between atoms: _367  and  _369
REMARK  159  A    between atoms: _369  and  _370
REMARK  160  A    between atoms: _373  and  _375
REMARK  161  A    between atoms: _375  and  _376
REMARK  162  A    between atoms: _375  and  _378
REMARK  163  A    between atoms: _378  and  _379
REMARK  164  A    between atoms: _384  and  _385
REMARK  165  A    between atoms: _387  and  _389
REMARK  166  A    between atoms: _389  and  _390
REMARK  167  A    between atoms: _389  and  _392
REMARK  168  A    between atoms: _395  and  _397
REMARK  169  A    between atoms: _397  and  _398
REMARK  170  A    between atoms: _397  and  _400
REMARK  171  A    between atoms: _400  and  _401
REMARK  172  A    between atoms: _404  and  _406
REMARK  173  A    between atoms: _406  and  _407
REMARK  174  A    between atoms: _406  and  _409
REMARK  175  A    between atoms: _412  and  _414
REMARK  176  A    between atoms: _414  and  _415
REMARK  177  A    between atoms: _414  and  _417
REMARK  178  A    between atoms: _417  and  _418
REMARK  179  A    between atoms: _421  and  _423
REMARK  180  A    between atoms: _423  and  _424
REMARK  181  A    between atoms: _423  and  _426
REMARK  182  A    between atoms: _426  and  _427
REMARK  183  A    between atoms: _430  and  _432
REMARK  184  A    between atoms: _432  and  _433
REMARK  185  A    between atoms: _432  and  _435
REMARK  186  A    between atoms: _435  and  _436
REMARK  187  A    between atoms: _436  and  _437
REMARK  188  A    between atoms: _437  and  _438
REMARK  189  A    between atoms: _438  and  _439
REMARK  190  A    between atoms: _443  and  _445
REMARK  191  A    between atoms: _445  and  _446
REMARK  192  A    between atoms: _445  and  _448
REMARK  193  A    between atoms: _448  and  _449
REMARK  194  A    between atoms: _454  and  _456
REMARK  195  A    between atoms: _456  and  _457
REMARK  196  A    between atoms: _456  and  _459
REMARK  197  A    between atoms: _459  and  _460
REMARK  198  A    between atoms: _470  and  _472
REMARK  199  A    between atoms: _472  and  _473
REMARK  200  A    between atoms: _472  and  _475
REMARK  201  A    between atoms: _475  and  _476
REMARK  202  A    between atoms: _476  and  _477
REMARK  203  A    between atoms: _479  and  _481
REMARK  204  A    between atoms: _481  and  _482
REMARK  205  A    between atoms: _481  and  _484
REMARK  206  A    between atoms: _484  and  _485
REMARK  207  A    between atoms: _485  and  _486
REMARK  208  A    between atoms: _486  and  _487
REMARK  209  A    between atoms: _496  and  _498
REMARK  210  A    between atoms: _498  and  _499
REMARK  211  A    between atoms: _501  and  _503
REMARK  212  A    between atoms: _503  and  _504
REMARK  213  A    between atoms: _503  and  _506
REMARK  214  A    between atoms: _506  and  _507
REMARK  215  A    between atoms: _510  and  _512
REMARK  216  A    between atoms: _512  and  _513
REMARK  217  A    between atoms: _512  and  _515
REMARK  218  A    between atoms: _515  and  _516
REMARK  219  A    between atoms: _516  and  _517
REMARK  220  A    between atoms: _517  and  _518
REMARK  221  A    between atoms: _518  and  _519
REMARK  222  A    between atoms: _523  and  _525
REMARK  223  A    between atoms: _525  and  _526
REMARK  224  A    between atoms: _525  and  _528
REMARK  225  A    between atoms: _531  and  _533
REMARK  226  A    between atoms: _533  and  _534
REMARK  227  A    between atoms: _533  and  _536
REMARK  228  A    between atoms: _536  and  _537
REMARK  229  A    between atoms: _540  and  _542
REMARK  230  A    between atoms: _542  and  _543
REMARK  231  A    between atoms: _542  and  _545
REMARK  232  A    between atoms: _545  and  _546
REMARK                            x       y       z     vdW  Elec       q    Type
REMARK                         _______ _______ _______ _____ _____    ______ ____
ROOT
ATOM      1  O   HOH     1       7.098  38.969 -11.548  0.00  0.00    +0.000 OA
ENDROOT
TORSDOF 0
REMARK  Name = ../refined-set-2016/1yc1/1yc1_pocket.pdb
REMARK  232 active torsions:
REMARK  status: ('A' for Active; 'I' for Inactive)
REMARK    1  A    between atoms: _1  and  _3
REMARK    2  A    between atoms: _3  and  _4
REMARK    3  A    between atoms: _3  and  _6
REMARK    4  A    between atoms: _6  and  _7
REMARK    5  A    between atoms: _13  and  _15
REMARK    6  A    between atoms: _15  and  _16
REMARK    7  A    between atoms: _15  and  _18
REMARK    8  A    between atoms: _18  and  _19
REMARK    9  A    between atoms: _19  and  _20
REMARK   10  A    between atoms: _23  and  _25
REMARK   11  A    between atoms: _25  and  _26
REMARK   12  A    between atoms: _25  and  _28
REMARK   13  A    between atoms: _28  and  _29
REMARK   14  A    between atoms: _32  and  _34
REMARK   15  A    between atoms: _34  and  _35
REMARK   16  A    between atoms: _34  and  _37
REMARK   17  A    between atoms: _37  and  _38
REMARK   18  A    between atoms: _41  and  _43
REMARK   19  A    between atoms: _43  and  _44
REMARK   20  A    between atoms: _43  and  _46
REMARK   21  A    between atoms: _46  and  _47
REMARK   22  A    between atoms: _49  and  _51
REMARK   23  A    between atoms: _51  and  _52
REMARK   24  A    between atoms: _51  and  _54
REMARK   25  A    between atoms: _54  and  _55
REMARK   26  A    between atoms: _60  and  _62
REMARK   27  A    between atoms: _62  and  _63
REMARK   28  A    between atoms: _62  and  _65
REMARK   29  A    between atoms: _65  and  _66
REMARK   30  A    between atoms: _68  and  _70
REMARK   31  A    between atoms: _70  and  _71
REMARK   32  A    between atoms: _70  and  _73
REMARK   33  A    between atoms: _73  and  _74
REMARK   34  A    between atoms: _76  and  _78
REMARK   35  A    between atoms: _78  and  _79
REMARK   36  A    between atoms: _78  and  _81
REMARK   37  A    between atoms: _81  and  _82
REMARK   38  A    between atoms: _85  and  _87
REMARK   39  A    between atoms: _87  and  _88
REMARK   40  A    between atoms: _91  and  _93
REMARK   41  A    between atoms: _93  and  _94
REMARK   42  A    between atoms: _93  and  _96
REMARK   43  A    between atoms: _96  and  _97
REMARK   44  A    between atoms: _100  and  _102
REMARK   45  A    between atoms: _102  and  _103
REMARK   46  A    between atoms: _102  and  _105
REMARK   47  A    between atoms: _105  and  _106
REMARK   48  A    between atoms: _109  and  _111
REMARK   49  A    between atoms: _111  and  _112
REMARK   50  A    between atoms: _111  and  _114
REMARK   51  A    between atoms: _114  and  _115
REMARK   52  A    between atoms: _115  and  _116
REMARK   53  A    between atoms: _116  and  _117
REMARK   54  A    between atoms: _117  and  _118
REMARK   55  A    between atoms: _122  and  _124
REMARK   56  A    between atoms: _124  and  _125
REMARK   57  A    between atoms: _124  and  _127
REMARK   58  A    between atoms: _127  and  _128
REMARK   59  A    between atoms: _131  and  _133
REMARK   60  A    between atoms: _133  and  _134
REMARK   61  A    between atoms: _133  and  _136
REMARK   62  A    between atoms: _136  and  _137
REMARK   63  A    between atoms: _140  and  _142
REMARK   64  A    between atoms: _142  and  _143
REMARK   65  A    between atoms: _142  and  _145
REMARK   66  A    between atoms: _145  and  _146
REMARK   67  A    between atoms: _149  and  _151
REMARK   68  A    between atoms: _151  and  _152
REMARK   69  A    between atoms: _151  and  _154
REMARK   70  A    between atoms: _157  and  _159
REMARK   71  A    between atoms: _159  and  _160
REMARK   72  A    between atoms: _159  and  _162
REMARK   73  A    between atoms: _162  and  _163
REMARK   74  A    between atoms: _166  and  _168
REMARK   75  A    between atoms: _168  and  _169
REMARK   76  A    between atoms: _168  and  _171
REMARK   77  A    between atoms: _171  and  _172
REMARK   78  A    between atoms: _175  and  _177
REMARK   79  A    between atoms: _177  and  _178
REMARK   80  A    between atoms: _180  and  _182
REMARK   81  A    between atoms: _182  and  _183
REMARK   82  A    between atoms: _182  and  _185
REMARK   83  A    between atoms: _185  and  _186
REMARK   84  A    between atoms: _189  and  _191
REMARK   85  A    between atoms: _191  and  _192
REMARK   86  A    between atoms: _194  and  _196
REMARK   87  A    between atoms: _196  and  _197
REMARK   88  A    between atoms: _196  and  _199
REMARK   89  A    between atoms: _199  and  _200
REMARK   90  A    between atoms: _200  and  _201
REMARK   91  A    between atoms: _203  and  _205
REMARK   92  A    between atoms: _205  and  _206
REMARK   93  A    between atoms: _205  and  _208
REMARK   94  A    between atoms: _208  and  _209
REMARK   95  A    between atoms: _212  and  _214
REMARK   96  A    between atoms: _214  and  _215
REMARK   97  A    between atoms: _214  and  _217
REMARK   98  A    between atoms: _217  and  _218
REMARK   99  A    between atoms: _221  and  _223
REMARK  100  A    between atoms: _223  and  _224
REMARK  101  A    between atoms: _223  and  _226
REMARK  102  A    between atoms: _226  and  _227
REMARK  103  A    between atoms: _230  and  _232
REMARK  104  A    between atoms: _232  and  _233
REMARK  105  A    between atoms: _232  and  _235
REMARK  106  A    between atoms: _235  and  _236
REMARK  107  A    between atoms: _241  and  _243
REMARK  108  A    between atoms: _243  and  _244
REMARK  109  A    between atoms: _243  and  _246
REMARK  110  A    between atoms: _246  and  _247
REMARK  111  A    between atoms: _252  and  _254
REMARK  112  A    between atoms: _254  and  _255
REMARK  113  A    between atoms: _254  and  _257
REMARK  114  A    between atoms: _257  and  _258
REMARK  115  A    between atoms: _261  and  _263
REMARK  116  A    between atoms: _263  and  _264
REMARK  117  A    between atoms: _263  and  _266
REMARK  118  A    between atoms: _266  and  _267
REMARK  119  A    between atoms: _270  and  _272
REMARK  120  A    between atoms: _272  and  _273
REMARK  121  A    between atoms: _272  and  _275
REMARK  122  A    between atoms: _275  and  _276
REMARK  123  A    between atoms: _279  and  _281
REMARK  124  A    between atoms: _281  and  _282
REMARK  125  A    between atoms: _285  and  _287
REMARK  126  A    between atoms: _287  and  _288
REMARK  127  A    between atoms: _287  and  _290
REMARK  128  A    between atoms: _290  and  _291
REMARK  129  A    between atoms: _291  and  _292
REMARK  130  A    between atoms: _292  and  _293
REMARK  131  A    between atoms: _293  and  _294
REMARK  132  A    between atoms: _298  and  _300
REMARK  133  A    between atoms: _300  and  _301
REMARK  134  A    between atoms: _300  and  _303
REMARK  135  A    between atoms: _303  and  _304
REMARK  136  A    between atoms: _306  and  _308
REMARK  137  A    between atoms: _308  and  _309
REMARK  138  A    between atoms: _311  and  _313
REMARK  139  A    between atoms: _313  and  _314
REMARK  140  A    between atoms: _313  and  _316
REMARK  141  A    between atoms: _316  and  _317
REMARK  142  A    between atoms: _323  and  _325
REMARK  143  A    between atoms: _325  and  _326
REMARK  144  A    between atoms: _328  and  _330
REMARK  145  A    between atoms: _330  and  _331
REMARK  146  A    between atoms: _330  and  _333
REMARK  147  A    between atoms: _336  and  _338
REMARK  148  A    between atoms: _338  and  _339
REMARK  149  A    between atoms: _341  and  _343
REMARK  150  A    between atoms: _343  and  _344
REMARK  151  A    between atoms: _343  and  _346
REMARK  152  A    between atoms: _346  and  _347
REMARK  153  A    between atoms: _353  and  _355
REMARK  154  A    between atoms: _355  and  _356
REMARK  155  A    between atoms: _355  and  _358
REMARK  156  A    between atoms: _358  and  _359
REMARK  157  A    between atoms: _364  and  _365
REMARK  158  A    between atoms: _367  and  _369
REMARK  159  A    between atoms: _369  and  _370
REMARK  160  A    between atoms: _373  and  _375
REMARK  161  A    between atoms: _375  and  _376
REMARK  162  A    between atoms: _375  and  _378
REMARK  163  A    between atoms: _378  and  _379
REMARK  164  A    between atoms: _384  and  _385
REMARK  165  A    between atoms: _387  and  _389
REMARK  166  A    between atoms: _389  and  _390
REMARK  167  A    between atoms: _389  and  _392
REMARK  168  A    between atoms: _395  and  _397
REMARK  169  A    between atoms: _397  and  _398
REMARK  170  A    between atoms: _397  and  _400
REMARK  171  A    between atoms: _400  and  _401
REMARK  172  A    between atoms: _404  and  _406
REMARK  173  A    between atoms: _406  and  _407
REMARK  174  A    between atoms: _406  and  _409
REMARK  175  A    between atoms: _412  and  _414
REMARK  176  A    between atoms: _414  and  _415
REMARK  177  A    between atoms: _414  and  _417
REMARK  178  A    between atoms: _417  and  _418
REMARK  179  A    between atoms: _421  and  _423
REMARK  180  A    between atoms: _423  and  _424
REMARK  181  A    between atoms: _423  and  _426
REMARK  182  A    between atoms: _426  and  _427
REMARK  183  A    between atoms: _430  and  _432
REMARK  184  A    between atoms: _432  and  _433
REMARK  185  A    between atoms: _432  and  _435
REMARK  186  A    between atoms: _435  and  _436
REMARK  187  A    between atoms: _436  and  _437
REMARK  188  A    between atoms: _437  and  _438
REMARK  189  A    between atoms: _438  and  _439
REMARK  190  A    between atoms: _443  and  _445
REMARK  191  A    between atoms: _445  and  _446
REMARK  192  A    between atoms: _445  and  _448
REMARK  193  A    between atoms: _448  and  _449
REMARK  194  A    between atoms: _454  and  _456
REMARK  195  A    between atoms: _456  and  _457
REMARK  196  A    between atoms: _456  and  _459
REMARK  197  A    between atoms: _459  and  _460
REMARK  198  A    between atoms: _470  and  _472
REMARK  199  A    between atoms: _472  and  _473
REMARK  200  A    between atoms: _472  and  _475
REMARK  201  A    between atoms: _475  and  _476
REMARK  202  A    between atoms: _476  and  _477
REMARK  203  A    between atoms: _479  and  _481
REMARK  204  A    between atoms: _481  and  _482
REMARK  205  A    between atoms: _481  and  _484
REMARK  206  A    between atoms: _484  and  _485
REMARK  207  A    between atoms: _485  and  _486
REMARK  208  A    between atoms: _486  and  _487
REMARK  209  A    between atoms: _496  and  _498
REMARK  210  A    between atoms: _498  and  _499
REMARK  211  A    between atoms: _501  and  _503
REMARK  212  A    between atoms: _503  and  _504
REMARK  213  A    between atoms: _503  and  _506
REMARK  214  A    between atoms: _506  and  _507
REMARK  215  A    between atoms: _510  and  _512
REMARK  216  A    between atoms: _512  and  _513
REMARK  217  A    between atoms: _512  and  _515
REMARK  218  A    between atoms: _515  and  _516
REMARK  219  A    between atoms: _516  and  _517
REMARK  220  A    between atoms: _517  and  _518
REMARK  221  A    between atoms: _518  and  _519
REMARK  222  A    between atoms: _523  and  _525
REMARK  223  A    between atoms: _525  and  _526
REMARK  224  A    between atoms: _525  and  _528
REMARK  225  A    between atoms: _531  and  _533
REMARK  226  A    between atoms: _533  and  _534
REMARK  227  A    between atoms: _533  and  _536
REMARK  228  A    between atoms: _536  and  _537
REMARK  229  A    between atoms: _540  and  _542
REMARK  230  A    between atoms: _542  and  _543
REMARK  231  A    between atoms: _542  and  _545
REMARK  232  A    between atoms: _545  and  _546
REMARK                            x       y       z     vdW  Elec       q    Type
REMARK                         _______ _______ _______ _____ _____    ______ ____
ROOT
ATOM      1  O   HOH     1       2.763  40.366  -0.463  0.00  0.00    +0.000 OA
ENDROOT
TORSDOF 0
REMARK  Name = ../refined-set-2016/1yc1/1yc1_pocket.pdb
REMARK  232 active torsions:
REMARK  status: ('A' for Active; 'I' for Inactive)
REMARK    1  A    between atoms: _1  and  _3
REMARK    2  A    between atoms: _3  and  _4
REMARK    3  A    between atoms: _3  and  _6
REMARK    4  A    between atoms: _6  and  _7
REMARK    5  A    between atoms: _13  and  _15
REMARK    6  A    between atoms: _15  and  _16
REMARK    7  A    between atoms: _15  and  _18
REMARK    8  A    between atoms: _18  and  _19
REMARK    9  A    between atoms: _19  and  _20
REMARK   10  A    between atoms: _23  and  _25
REMARK   11  A    between atoms: _25  and  _26
REMARK   12  A    between atoms: _25  and  _28
REMARK   13  A    between atoms: _28  and  _29
REMARK   14  A    between atoms: _32  and  _34
REMARK   15  A    between atoms: _34  and  _35
REMARK   16  A    between atoms: _34  and  _37
REMARK   17  A    between atoms: _37  and  _38
REMARK   18  A    between atoms: _41  and  _43
REMARK   19  A    between atoms: _43  and  _44
REMARK   20  A    between atoms: _43  and  _46
REMARK   21  A    between atoms: _46  and  _47
REMARK   22  A    between atoms: _49  and  _51
REMARK   23  A    between atoms: _51  and  _52
REMARK   24  A    between atoms: _51  and  _54
REMARK   25  A    between atoms: _54  and  _55
REMARK   26  A    between atoms: _60  and  _62
REMARK   27  A    between atoms: _62  and  _63
REMARK   28  A    between atoms: _62  and  _65
REMARK   29  A    between atoms: _65  and  _66
REMARK   30  A    between atoms: _68  and  _70
REMARK   31  A    between atoms: _70  and  _71
REMARK   32  A    between atoms: _70  and  _73
REMARK   33  A    between atoms: _73  and  _74
REMARK   34  A    between atoms: _76  and  _78
REMARK   35  A    between atoms: _78  and  _79
REMARK   36  A    between atoms: _78  and  _81
REMARK   37  A    between atoms: _81  and  _82
REMARK   38  A    between atoms: _85  and  _87
REMARK   39  A    between atoms: _87  and  _88
REMARK   40  A    between atoms: _91  and  _93
REMARK   41  A    between atoms: _93  and  _94
REMARK   42  A    between atoms: _93  and  _96
REMARK   43  A    between atoms: _96  and  _97
REMARK   44  A    between atoms: _100  and  _102
REMARK   45  A    between atoms: _102  and  _103
REMARK   46  A    between atoms: _102  and  _105
REMARK   47  A    between atoms: _105  and  _106
REMARK   48  A    between atoms: _109  and  _111
REMARK   49  A    between atoms: _111  and  _112
REMARK   50  A    between atoms: _111  and  _114
REMARK   51  A    between atoms: _114  and  _115
REMARK   52  A    between atoms: _115  and  _116
REMARK   53  A    between atoms: _116  and  _117
REMARK   54  A    between atoms: _117  and  _118
REMARK   55  A    between atoms: _122  and  _124
REMARK   56  A    between atoms: _124  and  _125
REMARK   57  A    between atoms: _124  and  _127
REMARK   58  A    between atoms: _127  and  _128
REMARK   59  A    between atoms: _131  and  _133
REMARK   60  A    between atoms: _133  and  _134
REMARK   61  A    between atoms: _133  and  _136
REMARK   62  A    between atoms: _136  and  _137
REMARK   63  A    between atoms: _140  and  _142
REMARK   64  A    between atoms: _142  and  _143
REMARK   65  A    between atoms: _142  and  _145
REMARK   66  A    between atoms: _145  and  _146
REMARK   67  A    between atoms: _149  and  _151
REMARK   68  A    between atoms: _151  and  _152
REMARK   69  A    between atoms: _151  and  _154
REMARK   70  A    between atoms: _157  and  _159
REMARK   71  A    between atoms: _159  and  _160
REMARK   72  A    between atoms: _159  and  _162
REMARK   73  A    between atoms: _162  and  _163
REMARK   74  A    between atoms: _166  and  _168
REMARK   75  A    between atoms: _168  and  _169
REMARK   76  A    between atoms: _168  and  _171
REMARK   77  A    between atoms: _171  and  _172
REMARK   78  A    between atoms: _175  and  _177
REMARK   79  A    between atoms: _177  and  _178
REMARK   80  A    between atoms: _180  and  _182
REMARK   81  A    between atoms: _182  and  _183
REMARK   82  A    between atoms: _182  and  _185
REMARK   83  A    between atoms: _185  and  _186
REMARK   84  A    between atoms: _189  and  _191
REMARK   85  A    between atoms: _191  and  _192
REMARK   86  A    between atoms: _194  and  _196
REMARK   87  A    between atoms: _196  and  _197
REMARK   88  A    between atoms: _196  and  _199
REMARK   89  A    between atoms: _199  and  _200
REMARK   90  A    between atoms: _200  and  _201
REMARK   91  A    between atoms: _203  and  _205
REMARK   92  A    between atoms: _205  and  _206
REMARK   93  A    between atoms: _205  and  _208
REMARK   94  A    between atoms: _208  and  _209
REMARK   95  A    between atoms: _212  and  _214
REMARK   96  A    between atoms: _214  and  _215
REMARK   97  A    between atoms: _214  and  _217
REMARK   98  A    between atoms: _217  and  _218
REMARK   99  A    between atoms: _221  and  _223
REMARK  100  A    between atoms: _223  and  _224
REMARK  101  A    between atoms: _223  and  _226
REMARK  102  A    between atoms: _226  and  _227
REMARK  103  A    between atoms: _230  and  _232
REMARK  104  A    between atoms: _232  and  _233
REMARK  105  A    between atoms: _232  and  _235
REMARK  106  A    between atoms: _235  and  _236
REMARK  107  A    between atoms: _241  and  _243
REMARK  108  A    between atoms: _243  and  _244
REMARK  109  A    between atoms: _243  and  _246
REMARK  110  A    between atoms: _246  and  _247
REMARK  111  A    between atoms: _252  and  _254
REMARK  112  A    between atoms: _254  and  _255
REMARK  113  A    between atoms: _254  and  _257
REMARK  114  A    between atoms: _257  and  _258
REMARK  115  A    between atoms: _261  and  _263
REMARK  116  A    between atoms: _263  and  _264
REMARK  117  A    between atoms: _263  and  _266
REMARK  118  A    between atoms: _266  and  _267
REMARK  119  A    between atoms: _270  and  _272
REMARK  120  A    between atoms: _272  and  _273
REMARK  121  A    between atoms: _272  and  _275
REMARK  122  A    between atoms: _275  and  _276
REMARK  123  A    between atoms: _279  and  _281
REMARK  124  A    between atoms: _281  and  _282
REMARK  125  A    between atoms: _285  and  _287
REMARK  126  A    between atoms: _287  and  _288
REMARK  127  A    between atoms: _287  and  _290
REMARK  128  A    between atoms: _290  and  _291
REMARK  129  A    between atoms: _291  and  _292
REMARK  130  A    between atoms: _292  and  _293
REMARK  131  A    between atoms: _293  and  _294
REMARK  132  A    between atoms: _298  and  _300
REMARK  133  A    between atoms: _300  and  _301
REMARK  134  A    between atoms: _300  and  _303
REMARK  135  A    between atoms: _303  and  _304
REMARK  136  A    between atoms: _306  and  _308
REMARK  137  A    between atoms: _308  and  _309
REMARK  138  A    between atoms: _311  and  _313
REMARK  139  A    between atoms: _313  and  _314
REMARK  140  A    between atoms: _313  and  _316
REMARK  141  A    between atoms: _316  and  _317
REMARK  142  A    between atoms: _323  and  _325
REMARK  143  A    between atoms: _325  and  _326
REMARK  144  A    between atoms: _328  and  _330
REMARK  145  A    between atoms: _330  and  _331
REMARK  146  A    between atoms: _330  and  _333
REMARK  147  A    between atoms: _336  and  _338
REMARK  148  A    between atoms: _338  and  _339
REMARK  149  A    between atoms: _341  and  _343
REMARK  150  A    between atoms: _343  and  _344
REMARK  151  A    between atoms: _343  and  _346
REMARK  152  A    between atoms: _346  and  _347
REMARK  153  A    between atoms: _353  and  _355
REMARK  154  A    between atoms: _355  and  _356
REMARK  155  A    between atoms: _355  and  _358
REMARK  156  A    between atoms: _358  and  _359
REMARK  157  A    between atoms: _364  and  _365
REMARK  158  A    between atoms: _367  and  _369
REMARK  159  A    between atoms: _369  and  _370
REMARK  160  A    between atoms: _373  and  _375
REMARK  161  A    between atoms: _375  and  _376
REMARK  162  A    between atoms: _375  and  _378
REMARK  163  A    between atoms: _378  and  _379
REMARK  164  A    between atoms: _384  and  _385
REMARK  165  A    between atoms: _387  and  _389
REMARK  166  A    between atoms: _389  and  _390
REMARK  167  A    between atoms: _389  and  _392
REMARK  168  A    between atoms: _395  and  _397
REMARK  169  A    between atoms: _397  and  _398
REMARK  170  A    between atoms: _397  and  _400
REMARK  171  A    between atoms: _400  and  _401
REMARK  172  A    between atoms: _404  and  _406
REMARK  173  A    between atoms: _406  and  _407
REMARK  174  A    between atoms: _406  and  _409
REMARK  175  A    between atoms: _412  and  _414
REMARK  176  A    between atoms: _414  and  _415
REMARK  177  A    between atoms: _414  and  _417
REMARK  178  A    between atoms: _417  and  _418
REMARK  179  A    between atoms: _421  and  _423
REMARK  180  A    between atoms: _423  and  _424
REMARK  181  A    between atoms: _423  and  _426
REMARK  182  A    between atoms: _426  and  _427
REMARK  183  A    between atoms: _430  and  _432
REMARK  184  A    between atoms: _432  and  _433
REMARK  185  A    between atoms: _432  and  _435
REMARK  186  A    between atoms: _435  and  _436
REMARK  187  A    between atoms: _436  and  _437
REMARK  188  A    between atoms: _437  and  _438
REMARK  189  A    between atoms: _438  and  _439
REMARK  190  A    between atoms: _443  and  _445
REMARK  191  A    between atoms: _445  and  _446
REMARK  192  A    between atoms: _445  and  _448
REMARK  193  A    between atoms: _448  and  _449
REMARK  194  A    between atoms: _454  and  _456
REMARK  195  A    between atoms: _456  and  _457
REMARK  196  A    between atoms: _456  and  _459
REMARK  197  A    between atoms: _459  and  _460
REMARK  198  A    between atoms: _470  and  _472
REMARK  199  A    between atoms: _472  and  _473
REMARK  200  A    between atoms: _472  and  _475
REMARK  201  A    between atoms: _475  and  _476
REMARK  202  A    between atoms: _476  and  _477
REMARK  203  A    between atoms: _479  and  _481
REMARK  204  A    between atoms: _481  and  _482
REMARK  205  A    between atoms: _481  and  _484
REMARK  206  A    between atoms: _484  and  _485
REMARK  207  A    between atoms: _485  and  _486
REMARK  208  A    between atoms: _486  and  _487
REMARK  209  A    between atoms: _496  and  _498
REMARK  210  A    between atoms: _498  and  _499
REMARK  211  A    between atoms: _501  and  _503
REMARK  212  A    between atoms: _503  and  _504
REMARK  213  A    between atoms: _503  and  _506
REMARK  214  A    between atoms: _506  and  _507
REMARK  215  A    between atoms: _510  and  _512
REMARK  216  A    between atoms: _512  and  _513
REMARK  217  A    between atoms: _512  and  _515
REMARK  218  A    between atoms: _515  and  _516
REMARK  219  A    between atoms: _516  and  _517
REMARK  220  A    between atoms: _517  and  _518
REMARK  221  A    between atoms: _518  and  _519
REMARK  222  A    between atoms: _523  and  _525
REMARK  223  A    between atoms: _525  and  _526
REMARK  224  A    between atoms: _525  and  _528
REMARK  225  A    between atoms: _531  and  _533
REMARK  226  A    between atoms: _533  and  _534
REMARK  227  A    between atoms: _533  and  _536
REMARK  228  A    between atoms: _536  and  _537
REMARK  229  A    between atoms: _540  and  _542
REMARK  230  A    between atoms: _542  and  _543
REMARK  231  A    between atoms: _542  and  _545
REMARK  232  A    between atoms: _545  and  _546
REMARK                            x       y       z     vdW  Elec       q    Type
REMARK                         _______ _______ _______ _____ _____    ______ ____
ROOT
ATOM      1  O   HOH     1       6.637  40.170  -1.227  0.00  0.00    +0.000 OA
ENDROOT
TORSDOF 0
REMARK  Name = ../refined-set-2016/1yc1/1yc1_pocket.pdb
REMARK  232 active torsions:
REMARK  status: ('A' for Active; 'I' for Inactive)
REMARK    1  A    between atoms: _1  and  _3
REMARK    2  A    between atoms: _3  and  _4
REMARK    3  A    between atoms: _3  and  _6
REMARK    4  A    between atoms: _6  and  _7
REMARK    5  A    between atoms: _13  and  _15
REMARK    6  A    between atoms: _15  and  _16
REMARK    7  A    between atoms: _15  and  _18
REMARK    8  A    between atoms: _18  and  _19
REMARK    9  A    between atoms: _19  and  _20
REMARK   10  A    between atoms: _23  and  _25
REMARK   11  A    between atoms: _25  and  _26
REMARK   12  A    between atoms: _25  and  _28
REMARK   13  A    between atoms: _28  and  _29
REMARK   14  A    between atoms: _32  and  _34
REMARK   15  A    between atoms: _34  and  _35
REMARK   16  A    between atoms: _34  and  _37
REMARK   17  A    between atoms: _37  and  _38
REMARK   18  A    between atoms: _41  and  _43
REMARK   19  A    between atoms: _43  and  _44
REMARK   20  A    between atoms: _43  and  _46
REMARK   21  A    between atoms: _46  and  _47
REMARK   22  A    between atoms: _49  and  _51
REMARK   23  A    between atoms: _51  and  _52
REMARK   24  A    between atoms: _51  and  _54
REMARK   25  A    between atoms: _54  and  _55
REMARK   26  A    between atoms: _60  and  _62
REMARK   27  A    between atoms: _62  and  _63
REMARK   28  A    between atoms: _62  and  _65
REMARK   29  A    between atoms: _65  and  _66
REMARK   30  A    between atoms: _68  and  _70
REMARK   31  A    between atoms: _70  and  _71
REMARK   32  A    between atoms: _70  and  _73
REMARK   33  A    between atoms: _73  and  _74
REMARK   34  A    between atoms: _76  and  _78
REMARK   35  A    between atoms: _78  and  _79
REMARK   36  A    between atoms: _78  and  _81
REMARK   37  A    between atoms: _81  and  _82
REMARK   38  A    between atoms: _85  and  _87
REMARK   39  A    between atoms: _87  and  _88
REMARK   40  A    between atoms: _91  and  _93
REMARK   41  A    between atoms: _93  and  _94
REMARK   42  A    between atoms: _93  and  _96
REMARK   43  A    between atoms: _96  and  _97
REMARK   44  A    between atoms: _100  and  _102
REMARK   45  A    between atoms: _102  and  _103
REMARK   46  A    between atoms: _102  and  _105
REMARK   47  A    between atoms: _105  and  _106
REMARK   48  A    between atoms: _109  and  _111
REMARK   49  A    between atoms: _111  and  _112
REMARK   50  A    between atoms: _111  and  _114
REMARK   51  A    between atoms: _114  and  _115
REMARK   52  A    between atoms: _115  and  _116
REMARK   53  A    between atoms: _116  and  _117
REMARK   54  A    between atoms: _117  and  _118
REMARK   55  A    between atoms: _122  and  _124
REMARK   56  A    between atoms: _124  and  _125
REMARK   57  A    between atoms: _124  and  _127
REMARK   58  A    between atoms: _127  and  _128
REMARK   59  A    between atoms: _131  and  _133
REMARK   60  A    between atoms: _133  and  _134
REMARK   61  A    between atoms: _133  and  _136
REMARK   62  A    between atoms: _136  and  _137
REMARK   63  A    between atoms: _140  and  _142
REMARK   64  A    between atoms: _142  and  _143
REMARK   65  A    between atoms: _142  and  _145
REMARK   66  A    between atoms: _145  and  _146
REMARK   67  A    between atoms: _149  and  _151
REMARK   68  A    between atoms: _151  and  _152
REMARK   69  A    between atoms: _151  and  _154
REMARK   70  A    between atoms: _157  and  _159
REMARK   71  A    between atoms: _159  and  _160
REMARK   72  A    between atoms: _159  and  _162
REMARK   73  A    between atoms: _162  and  _163
REMARK   74  A    between atoms: _166  and  _168
REMARK   75  A    between atoms: _168  and  _169
REMARK   76  A    between atoms: _168  and  _171
REMARK   77  A    between atoms: _171  and  _172
REMARK   78  A    between atoms: _175  and  _177
REMARK   79  A    between atoms: _177  and  _178
REMARK   80  A    between atoms: _180  and  _182
REMARK   81  A    between atoms: _182  and  _183
REMARK   82  A    between atoms: _182  and  _185
REMARK   83  A    between atoms: _185  and  _186
REMARK   84  A    between atoms: _189  and  _191
REMARK   85  A    between atoms: _191  and  _192
REMARK   86  A    between atoms: _194  and  _196
REMARK   87  A    between atoms: _196  and  _197
REMARK   88  A    between atoms: _196  and  _199
REMARK   89  A    between atoms: _199  and  _200
REMARK   90  A    between atoms: _200  and  _201
REMARK   91  A    between atoms: _203  and  _205
REMARK   92  A    between atoms: _205  and  _206
REMARK   93  A    between atoms: _205  and  _208
REMARK   94  A    between atoms: _208  and  _209
REMARK   95  A    between atoms: _212  and  _214
REMARK   96  A    between atoms: _214  and  _215
REMARK   97  A    between atoms: _214  and  _217
REMARK   98  A    between atoms: _217  and  _218
REMARK   99  A    between atoms: _221  and  _223
REMARK  100  A    between atoms: _223  and  _224
REMARK  101  A    between atoms: _223  and  _226
REMARK  102  A    between atoms: _226  and  _227
REMARK  103  A    between atoms: _230  and  _232
REMARK  104  A    between atoms: _232  and  _233
REMARK  105  A    between atoms: _232  and  _235
REMARK  106  A    between atoms: _235  and  _236
REMARK  107  A    between atoms: _241  and  _243
REMARK  108  A    between atoms: _243  and  _244
REMARK  109  A    between atoms: _243  and  _246
REMARK  110  A    between atoms: _246  and  _247
REMARK  111  A    between atoms: _252  and  _254
REMARK  112  A    between atoms: _254  and  _255
REMARK  113  A    between atoms: _254  and  _257
REMARK  114  A    between atoms: _257  and  _258
REMARK  115  A    between atoms: _261  and  _263
REMARK  116  A    between atoms: _263  and  _264
REMARK  117  A    between atoms: _263  and  _266
REMARK  118  A    between atoms: _266  and  _267
REMARK  119  A    between atoms: _270  and  _272
REMARK  120  A    between atoms: _272  and  _273
REMARK  121  A    between atoms: _272  and  _275
REMARK  122  A    between atoms: _275  and  _276
REMARK  123  A    between atoms: _279  and  _281
REMARK  124  A    between atoms: _281  and  _282
REMARK  125  A    between atoms: _285  and  _287
REMARK  126  A    between atoms: _287  and  _288
REMARK  127  A    between atoms: _287  and  _290
REMARK  128  A    between atoms: _290  and  _291
REMARK  129  A    between atoms: _291  and  _292
REMARK  130  A    between atoms: _292  and  _293
REMARK  131  A    between atoms: _293  and  _294
REMARK  132  A    between atoms: _298  and  _300
REMARK  133  A    between atoms: _300  and  _301
REMARK  134  A    between atoms: _300  and  _303
REMARK  135  A    between atoms: _303  and  _304
REMARK  136  A    between atoms: _306  and  _308
REMARK  137  A    between atoms: _308  and  _309
REMARK  138  A    between atoms: _311  and  _313
REMARK  139  A    between atoms: _313  and  _314
REMARK  140  A    between atoms: _313  and  _316
REMARK  141  A    between atoms: _316  and  _317
REMARK  142  A    between atoms: _323  and  _325
REMARK  143  A    between atoms: _325  and  _326
REMARK  144  A    between atoms: _328  and  _330
REMARK  145  A    between atoms: _330  and  _331
REMARK  146  A    between atoms: _330  and  _333
REMARK  147  A    between atoms: _336  and  _338
REMARK  148  A    between atoms: _338  and  _339
REMARK  149  A    between atoms: _341  and  _343
REMARK  150  A    between atoms: _343  and  _344
REMARK  151  A    between atoms: _343  and  _346
REMARK  152  A    between atoms: _346  and  _347
REMARK  153  A    between atoms: _353  and  _355
REMARK  154  A    between atoms: _355  and  _356
REMARK  155  A    between atoms: _355  and  _358
REMARK  156  A    between atoms: _358  and  _359
REMARK  157  A    between atoms: _364  and  _365
REMARK  158  A    between atoms: _367  and  _369
REMARK  159  A    between atoms: _369  and  _370
REMARK  160  A    between atoms: _373  and  _375
REMARK  161  A    between atoms: _375  and  _376
REMARK  162  A    between atoms: _375  and  _378
REMARK  163  A    between atoms: _378  and  _379
REMARK  164  A    between atoms: _384  and  _385
REMARK  165  A    between atoms: _387  and  _389
REMARK  166  A    between atoms: _389  and  _390
REMARK  167  A    between atoms: _389  and  _392
REMARK  168  A    between atoms: _395  and  _397
REMARK  169  A    between atoms: _397  and  _398
REMARK  170  A    between atoms: _397  and  _400
REMARK  171  A    between atoms: _400  and  _401
REMARK  172  A    between atoms: _404  and  _406
REMARK  173  A    between atoms: _406  and  _407
REMARK  174  A    between atoms: _406  and  _409
REMARK  175  A    between atoms: _412  and  _414
REMARK  176  A    between atoms: _414  and  _415
REMARK  177  A    between atoms: _414  and  _417
REMARK  178  A    between atoms: _417  and  _418
REMARK  179  A    between atoms: _421  and  _423
REMARK  180  A    between atoms: _423  and  _424
REMARK  181  A    between atoms: _423  and  _426
REMARK  182  A    between atoms: _426  and  _427
REMARK  183  A    between atoms: _430  and  _432
REMARK  184  A    between atoms: _432  and  _433
REMARK  185  A    between atoms: _432  and  _435
REMARK  186  A    between atoms: _435  and  _436
REMARK  187  A    between atoms: _436  and  _437
REMARK  188  A    between atoms: _437  and  _438
REMARK  189  A    between atoms: _438  and  _439
REMARK  190  A    between atoms: _443  and  _445
REMARK  191  A    between atoms: _445  and  _446
REMARK  192  A    between atoms: _445  and  _448
REMARK  193  A    between atoms: _448  and  _449
REMARK  194  A    between atoms: _454  and  _456
REMARK  195  A    between atoms: _456  and  _457
REMARK  196  A    between atoms: _456  and  _459
REMARK  197  A    between atoms: _459  and  _460
REMARK  198  A    between atoms: _470  and  _472
REMARK  199  A    between atoms: _472  and  _473
REMARK  200  A    between atoms: _472  and  _475
REMARK  201  A    between atoms: _475  and  _476
REMARK  202  A    between atoms: _476  and  _477
REMARK  203  A    between atoms: _479  and  _481
REMARK  204  A    between atoms: _481  and  _482
REMARK  205  A    between atoms: _481  and  _484
REMARK  206  A    between atoms: _484  and  _485
REMARK  207  A    between atoms: _485  and  _486
REMARK  208  A    between atoms: _486  and  _487
REMARK  209  A    between atoms: _496  and  _498
REMARK  210  A    between atoms: _498  and  _499
REMARK  211  A    between atoms: _501  and  _503
REMARK  212  A    between atoms: _503  and  _504
REMARK  213  A    between atoms: _503  and  _506
REMARK  214  A    between atoms: _506  and  _507
REMARK  215  A    between atoms: _510  and  _512
REMARK  216  A    between atoms: _512  and  _513
REMARK  217  A    between atoms: _512  and  _515
REMARK  218  A    between atoms: _515  and  _516
REMARK  219  A    between atoms: _516  and  _517
REMARK  220  A    between atoms: _517  and  _518
REMARK  221  A    between atoms: _518  and  _519
REMARK  222  A    between atoms: _523  and  _525
REMARK  223  A    between atoms: _525  and  _526
REMARK  224  A    between atoms: _525  and  _528
REMARK  225  A    between atoms: _531  and  _533
REMARK  226  A    between atoms: _533  and  _534
REMARK  227  A    between atoms: _533  and  _536
REMARK  228  A    between atoms: _536  and  _537
REMARK  229  A    between atoms: _540  and  _542
REMARK  230  A    between atoms: _542  and  _543
REMARK  231  A    between atoms: _542  and  _545
REMARK  232  A    between atoms: _545  and  _546
REMARK                            x       y       z     vdW  Elec       q    Type
REMARK                         _______ _______ _______ _____ _____    ______ ____
ROOT
ATOM      1  O   HOH     1       2.864  38.504   1.131  0.00  0.00    +0.000 OA
ENDROOT
TORSDOF 0
