REMARK  Name = ../refined-set-2016/1qka/1qka_pocket.pdb
REMARK  281 active torsions:
REMARK  status: ('A' for Active; 'I' for Inactive)
REMARK    1  A    between atoms: _1  and  _3
REMARK    2  A    between atoms: _3  and  _4
REMARK    3  A    between atoms: _3  and  _6
REMARK    4  A    between atoms: _6  and  _7
REMARK    5  A    between atoms: _12  and  _14
REMARK    6  A    between atoms: _14  and  _15
REMARK    7  A    between atoms: _17  and  _19
REMARK    8  A    between atoms: _19  and  _20
REMARK    9  A    between atoms: _19  and  _22
REMARK   10  A    between atoms: _22  and  _23
REMARK   11  A    between atoms: _25  and  _27
REMARK   12  A    between atoms: _27  and  _28
REMARK   13  A    between atoms: _27  and  _30
REMARK   14  A    between atoms: _30  and  _31
REMARK   15  A    between atoms: _31  and  _32
REMARK   16  A    between atoms: _37  and  _39
REMARK   17  A    between atoms: _39  and  _40
REMARK   18  A    between atoms: _39  and  _42
REMARK   19  A    between atoms: _42  and  _43
REMARK   20  A    between atoms: _46  and  _48
REMARK   21  A    between atoms: _48  and  _49
REMARK   22  A    between atoms: _48  and  _51
REMARK   23  A    between atoms: _51  and  _52
REMARK   24  A    between atoms: _52  and  _53
REMARK   25  A    between atoms: _56  and  _58
REMARK   26  A    between atoms: _58  and  _59
REMARK   27  A    between atoms: _61  and  _63
REMARK   28  A    between atoms: _63  and  _64
REMARK   29  A    between atoms: _63  and  _66
REMARK   30  A    between atoms: _70  and  _71
REMARK   31  A    between atoms: _76  and  _78
REMARK   32  A    between atoms: _78  and  _79
REMARK   33  A    between atoms: _78  and  _81
REMARK   34  A    between atoms: _81  and  _82
REMARK   35  A    between atoms: _82  and  _83
REMARK   36  A    between atoms: _86  and  _88
REMARK   37  A    between atoms: _88  and  _89
REMARK   38  A    between atoms: _88  and  _91
REMARK   39  A    between atoms: _91  and  _92
REMARK   40  A    between atoms: _94  and  _96
REMARK   41  A    between atoms: _96  and  _97
REMARK   42  A    between atoms: _96  and  _99
REMARK   43  A    between atoms: _99  and  _100
REMARK   44  A    between atoms: _105  and  _107
REMARK   45  A    between atoms: _107  and  _108
REMARK   46  A    between atoms: _107  and  _110
REMARK   47  A    between atoms: _110  and  _111
REMARK   48  A    between atoms: _111  and  _112
REMARK   49  A    between atoms: _112  and  _113
REMARK   50  A    between atoms: _123  and  _124
REMARK   51  A    between atoms: _129  and  _131
REMARK   52  A    between atoms: _131  and  _132
REMARK   53  A    between atoms: _131  and  _134
REMARK   54  A    between atoms: _134  and  _135
REMARK   55  A    between atoms: _140  and  _141
REMARK   56  A    between atoms: _143  and  _145
REMARK   57  A    between atoms: _145  and  _146
REMARK   58  A    between atoms: _145  and  _148
REMARK   59  A    between atoms: _148  and  _149
REMARK   60  A    between atoms: _154  and  _155
REMARK   61  A    between atoms: _157  and  _159
REMARK   62  A    between atoms: _159  and  _160
REMARK   63  A    between atoms: _159  and  _162
REMARK   64  A    between atoms: _162  and  _163
REMARK   65  A    between atoms: _168  and  _169
REMARK   66  A    between atoms: _171  and  _173
REMARK   67  A    between atoms: _173  and  _174
REMARK   68  A    between atoms: _173  and  _176
REMARK   69  A    between atoms: _179  and  _181
REMARK   70  A    between atoms: _181  and  _182
REMARK   71  A    between atoms: _181  and  _184
REMARK   72  A    between atoms: _184  and  _185
REMARK   73  A    between atoms: _191  and  _192
REMARK   74  A    between atoms: _197  and  _199
REMARK   75  A    between atoms: _199  and  _200
REMARK   76  A    between atoms: _199  and  _202
REMARK   77  A    between atoms: _202  and  _203
REMARK   78  A    between atoms: _205  and  _207
REMARK   79  A    between atoms: _207  and  _208
REMARK   80  A    between atoms: _207  and  _210
REMARK   81  A    between atoms: _210  and  _211
REMARK   82  A    between atoms: _211  and  _212
REMARK   83  A    between atoms: _215  and  _217
REMARK   84  A    between atoms: _217  and  _218
REMARK   85  A    between atoms: _217  and  _220
REMARK   86  A    between atoms: _220  and  _221
REMARK   87  A    between atoms: _226  and  _227
REMARK   88  A    between atoms: _229  and  _231
REMARK   89  A    between atoms: _231  and  _232
REMARK   90  A    between atoms: _231  and  _234
REMARK   91  A    between atoms: _234  and  _235
REMARK   92  A    between atoms: _240  and  _242
REMARK   93  A    between atoms: _242  and  _243
REMARK   94  A    between atoms: _242  and  _245
REMARK   95  A    between atoms: _245  and  _246
REMARK   96  A    between atoms: _251  and  _253
REMARK   97  A    between atoms: _253  and  _254
REMARK   98  A    between atoms: _253  and  _256
REMARK   99  A    between atoms: _256  and  _257
REMARK  100  A    between atoms: _257  and  _258
REMARK  101  A    between atoms: _260  and  _262
REMARK  102  A    between atoms: _262  and  _263
REMARK  103  A    between atoms: _262  and  _265
REMARK  104  A    between atoms: _265  and  _266
REMARK  105  A    between atoms: _271  and  _272
REMARK  106  A    between atoms: _274  and  _276
REMARK  107  A    between atoms: _276  and  _277
REMARK  108  A    between atoms: _276  and  _279
REMARK  109  A    between atoms: _279  and  _280
REMARK  110  A    between atoms: _283  and  _285
REMARK  111  A    between atoms: _285  and  _286
REMARK  112  A    between atoms: _285  and  _288
REMARK  113  A    between atoms: _288  and  _289
REMARK  114  A    between atoms: _289  and  _497
REMARK  115  A    between atoms: _290  and  _292
REMARK  116  A    between atoms: _292  and  _293
REMARK  117  A    between atoms: _292  and  _295
REMARK  118  A    between atoms: _295  and  _296
REMARK  119  A    between atoms: _299  and  _301
REMARK  120  A    between atoms: _301  and  _302
REMARK  121  A    between atoms: _301  and  _304
REMARK  122  A    between atoms: _304  and  _305
REMARK  123  A    between atoms: _310  and  _311
REMARK  124  A    between atoms: _313  and  _315
REMARK  125  A    between atoms: _315  and  _316
REMARK  126  A    between atoms: _315  and  _318
REMARK  127  A    between atoms: _318  and  _319
REMARK  128  A    between atoms: _324  and  _325
REMARK  129  A    between atoms: _327  and  _329
REMARK  130  A    between atoms: _329  and  _330
REMARK  131  A    between atoms: _329  and  _332
REMARK  132  A    between atoms: _332  and  _333
REMARK  133  A    between atoms: _333  and  _334
REMARK  134  A    between atoms: _337  and  _339
REMARK  135  A    between atoms: _339  and  _340
REMARK  136  A    between atoms: _339  and  _342
REMARK  137  A    between atoms: _342  and  _343
REMARK  138  A    between atoms: _348  and  _349
REMARK  139  A    between atoms: _351  and  _353
REMARK  140  A    between atoms: _353  and  _354
REMARK  141  A    between atoms: _353  and  _356
REMARK  142  A    between atoms: _356  and  _357
REMARK  143  A    between atoms: _362  and  _364
REMARK  144  A    between atoms: _364  and  _365
REMARK  145  A    between atoms: _364  and  _367
REMARK  146  A    between atoms: _367  and  _368
REMARK  147  A    between atoms: _371  and  _373
REMARK  148  A    between atoms: _373  and  _374
REMARK  149  A    between atoms: _373  and  _376
REMARK  150  A    between atoms: _376  and  _377
REMARK  151  A    between atoms: _382  and  _384
REMARK  152  A    between atoms: _384  and  _385
REMARK  153  A    between atoms: _384  and  _387
REMARK  154  A    between atoms: _387  and  _388
REMARK  155  A    between atoms: _398  and  _400
REMARK  156  A    between atoms: _400  and  _401
REMARK  157  A    between atoms: _400  and  _403
REMARK  158  A    between atoms: _403  and  _404
REMARK  159  A    between atoms: _410  and  _412
REMARK  160  A    between atoms: _412  and  _413
REMARK  161  A    between atoms: _412  and  _415
REMARK  162  A    between atoms: _415  and  _416
REMARK  163  A    between atoms: _419  and  _421
REMARK  164  A    between atoms: _421  and  _422
REMARK  165  A    between atoms: _421  and  _424
REMARK  166  A    between atoms: _424  and  _425
REMARK  167  A    between atoms: _425  and  _426
REMARK  168  A    between atoms: _426  and  _427
REMARK  169  A    between atoms: _436  and  _438
REMARK  170  A    between atoms: _438  and  _439
REMARK  171  A    between atoms: _438  and  _441
REMARK  172  A    between atoms: _441  and  _442
REMARK  173  A    between atoms: _447  and  _449
REMARK  174  A    between atoms: _449  and  _450
REMARK  175  A    between atoms: _449  and  _452
REMARK  176  A    between atoms: _452  and  _453
REMARK  177  A    between atoms: _453  and  _454
REMARK  178  A    between atoms: _454  and  _455
REMARK  179  A    between atoms: _464  and  _466
REMARK  180  A    between atoms: _466  and  _467
REMARK  181  A    between atoms: _470  and  _472
REMARK  182  A    between atoms: _472  and  _473
REMARK  183  A    between atoms: _475  and  _477
REMARK  184  A    between atoms: _477  and  _478
REMARK  185  A    between atoms: _477  and  _480
REMARK  186  A    between atoms: _480  and  _481
REMARK  187  A    between atoms: _491  and  _493
REMARK  188  A    between atoms: _493  and  _494
REMARK  189  A    between atoms: _493  and  _496
REMARK  190  A    between atoms: _496  and  _497
REMARK  191  A    between atoms: _498  and  _500
REMARK  192  A    between atoms: _500  and  _501
REMARK  193  A    between atoms: _504  and  _506
REMARK  194  A    between atoms: _506  and  _507
REMARK  195  A    between atoms: _506  and  _509
REMARK  196  A    between atoms: _509  and  _510
REMARK  197  A    between atoms: _513  and  _515
REMARK  198  A    between atoms: _515  and  _516
REMARK  199  A    between atoms: _515  and  _518
REMARK  200  A    between atoms: _518  and  _519
REMARK  201  A    between atoms: _524  and  _525
REMARK  202  A    between atoms: _527  and  _529
REMARK  203  A    between atoms: _529  and  _530
REMARK  204  A    between atoms: _529  and  _532
REMARK  205  A    between atoms: _532  and  _533
REMARK  206  A    between atoms: _535  and  _537
REMARK  207  A    between atoms: _537  and  _538
REMARK  208  A    between atoms: _537  and  _540
REMARK  209  A    between atoms: _540  and  _541
REMARK  210  A    between atoms: _547  and  _549
REMARK  211  A    between atoms: _549  and  _550
REMARK  212  A    between atoms: _549  and  _552
REMARK  213  A    between atoms: _552  and  _553
REMARK  214  A    between atoms: _556  and  _558
REMARK  215  A    between atoms: _558  and  _559
REMARK  216  A    between atoms: _558  and  _561
REMARK  217  A    between atoms: _561  and  _562
REMARK  218  A    between atoms: _562  and  _563
REMARK  219  A    between atoms: _565  and  _567
REMARK  220  A    between atoms: _567  and  _568
REMARK  221  A    between atoms: _567  and  _570
REMARK  222  A    between atoms: _570  and  _571
REMARK  223  A    between atoms: _573  and  _575
REMARK  224  A    between atoms: _575  and  _576
REMARK  225  A    between atoms: _575  and  _578
REMARK  226  A    between atoms: _578  and  _579
REMARK  227  A    between atoms: _581  and  _583
REMARK  228  A    between atoms: _583  and  _584
REMARK  229  A    between atoms: _583  and  _586
REMARK  230  A    between atoms: _586  and  _587
REMARK  231  A    between atoms: _592  and  _594
REMARK  232  A    between atoms: _594  and  _595
REMARK  233  A    between atoms: _594  and  _597
REMARK  234  A    between atoms: _597  and  _598
REMARK  235  A    between atoms: _603  and  _605
REMARK  236  A    between atoms: _605  and  _606
REMARK  237  A    between atoms: _605  and  _608
REMARK  238  A    between atoms: _608  and  _609
REMARK  239  A    between atoms: _612  and  _614
REMARK  240  A    between atoms: _614  and  _615
REMARK  241  A    between atoms: _618  and  _620
REMARK  242  A    between atoms: _620  and  _621
REMARK  243  A    between atoms: _620  and  _623
REMARK  244  A    between atoms: _623  and  _624
REMARK  245  A    between atoms: _629  and  _631
REMARK  246  A    between atoms: _631  and  _632
REMARK  247  A    between atoms: _631  and  _634
REMARK  248  A    between atoms: _634  and  _635
REMARK  249  A    between atoms: _640  and  _641
REMARK  250  A    between atoms: _643  and  _645
REMARK  251  A    between atoms: _645  and  _646
REMARK  252  A    between atoms: _645  and  _648
REMARK  253  A    between atoms: _648  and  _649
REMARK  254  A    between atoms: _654  and  _655
REMARK  255  A    between atoms: _657  and  _659
REMARK  256  A    between atoms: _659  and  _660
REMARK  257  A    between atoms: _659  and  _662
REMARK  258  A    between atoms: _665  and  _667
REMARK  259  A    between atoms: _667  and  _668
REMARK  260  A    between atoms: _667  and  _670
REMARK  261  A    between atoms: _670  and  _671
REMARK  262  A    between atoms: _676  and  _678
REMARK  263  A    between atoms: _678  and  _679
REMARK  264  A    between atoms: _682  and  _684
REMARK  265  A    between atoms: _684  and  _685
REMARK  266  A    between atoms: _684  and  _687
REMARK  267  A    between atoms: _687  and  _688
REMARK  268  A    between atoms: _688  and  _689
REMARK  269  A    between atoms: _689  and  _690
REMARK  270  A    between atoms: _699  and  _701
REMARK  271  A    between atoms: _701  and  _702
REMARK  272  A    between atoms: _701  and  _704
REMARK  273  A    between atoms: _704  and  _705
REMARK  274  A    between atoms: _708  and  _710
REMARK  275  A    between atoms: _710  and  _711
REMARK  276  A    between atoms: _710  and  _713
REMARK  277  A    between atoms: _713  and  _714
REMARK  278  A    between atoms: _717  and  _719
REMARK  279  A    between atoms: _719  and  _720
REMARK  280  A    between atoms: _719  and  _722
REMARK  281  A    between atoms: _722  and  _723
REMARK                            x       y       z     vdW  Elec       q    Type
REMARK                         _______ _______ _______ _____ _____    ______ ____
ROOT
ATOM      1  C   ASN A   1      -3.412  23.774   6.739  0.00  0.00    +0.239 C 
ATOM      2  O   ASN A   1      -2.379  23.905   7.408  0.00  0.00    -0.274 OA
ATOM      3  N   GLY A   2      -4.605  24.078   7.252  0.00  0.00    -0.296 N 
ATOM      4  H   GLY A   2      -5.440  23.985   6.639  0.00  0.00    +0.150 HD
ENDROOT
BRANCH   1   5
ATOM      5  CA  ASN A   1      -3.404  23.135   5.359  0.00  0.00    +0.154 C 
BRANCH   5   6
ATOM      6  N   ASN A   1      -4.654  23.399   4.626  0.00  0.00    -0.238 NA
ATOM      7  H   ASN A   1      -5.022  24.370   4.563  0.00  0.00    +0.142 HD
ENDBRANCH   5   6
BRANCH   5   8
ATOM      8  CB  ASN A   1      -2.226  23.730   4.555  0.00  0.00    +0.111 C 
BRANCH   8   9
ATOM      9  CG  ASN A   1      -0.877  23.146   4.972  0.00  0.00    +0.221 C 
ATOM     10  OD1 ASN A   1      -0.783  21.951   5.279  0.00  0.00    -0.275 OA
ATOM     11  ND2 ASN A   1       0.144  23.990   4.932  0.00  0.00    -0.329 N 
ATOM     12 HD21 ASN A   1       1.101  23.660   5.168  0.00  0.00    +0.145 HD
ATOM     13 HD22 ASN A   1      -0.012  24.983   4.664  0.00  0.00    +0.145 HD
ENDBRANCH   8   9
ENDBRANCH   5   8
ENDBRANCH   1   5
BRANCH   3  14
ATOM     14  CA  GLY A   2      -4.806  24.532   8.619  0.00  0.00    +0.176 C 
BRANCH  14  15
ATOM     15  C   GLY A   2      -4.442  25.948   8.978  0.00  0.00    +0.243 C 
ATOM     16  O   GLY A   2      -5.094  26.639   9.783  0.00  0.00    -0.273 OA
ATOM     17  N   SER A   3      -3.338  26.458   8.470  0.00  0.00    -0.296 N 
ATOM     18  H   SER A   3      -2.781  25.872   7.815  0.00  0.00    +0.150 HD
BRANCH  17  19
ATOM     19  CA  SER A   3      -2.863  27.779   8.772  0.00  0.00    +0.166 C 
BRANCH  19  20
ATOM     20  C   SER A   3      -1.803  28.274   7.804  0.00  0.00    +0.229 C 
ATOM     21  O   SER A   3      -1.343  27.497   6.969  0.00  0.00    -0.286 OA
ENDBRANCH  19  20
BRANCH  19  22
ATOM     22  CB  SER A   3      -2.185  27.765  10.169  0.00  0.00    +0.165 C 
BRANCH  22  23
ATOM     23  OG  SER A   3      -1.232  26.692  10.163  0.00  0.00    -0.380 OA
ATOM     24  H   SER A   3      -0.777  26.651  11.041  0.00  0.00    +0.211 HD
ENDBRANCH  22  23
ENDBRANCH  19  22
ENDBRANCH  17  19
ENDBRANCH  14  15
ENDBRANCH   3  14
TORSDOF 10
REMARK  Name = ../refined-set-2016/1qka/1qka_pocket.pdb
REMARK  281 active torsions:
REMARK  status: ('A' for Active; 'I' for Inactive)
REMARK    1  A    between atoms: _1  and  _3
REMARK    2  A    between atoms: _3  and  _4
REMARK    3  A    between atoms: _3  and  _6
REMARK    4  A    between atoms: _6  and  _7
REMARK    5  A    between atoms: _12  and  _14
REMARK    6  A    between atoms: _14  and  _15
REMARK    7  A    between atoms: _17  and  _19
REMARK    8  A    between atoms: _19  and  _20
REMARK    9  A    between atoms: _19  and  _22
REMARK   10  A    between atoms: _22  and  _23
REMARK   11  A    between atoms: _25  and  _27
REMARK   12  A    between atoms: _27  and  _28
REMARK   13  A    between atoms: _27  and  _30
REMARK   14  A    between atoms: _30  and  _31
REMARK   15  A    between atoms: _31  and  _32
REMARK   16  A    between atoms: _37  and  _39
REMARK   17  A    between atoms: _39  and  _40
REMARK   18  A    between atoms: _39  and  _42
REMARK   19  A    between atoms: _42  and  _43
REMARK   20  A    between atoms: _46  and  _48
REMARK   21  A    between atoms: _48  and  _49
REMARK   22  A    between atoms: _48  and  _51
REMARK   23  A    between atoms: _51  and  _52
REMARK   24  A    between atoms: _52  and  _53
REMARK   25  A    between atoms: _56  and  _58
REMARK   26  A    between atoms: _58  and  _59
REMARK   27  A    between atoms: _61  and  _63
REMARK   28  A    between atoms: _63  and  _64
REMARK   29  A    between atoms: _63  and  _66
REMARK   30  A    between atoms: _70  and  _71
REMARK   31  A    between atoms: _76  and  _78
REMARK   32  A    between atoms: _78  and  _79
REMARK   33  A    between atoms: _78  and  _81
REMARK   34  A    between atoms: _81  and  _82
REMARK   35  A    between atoms: _82  and  _83
REMARK   36  A    between atoms: _86  and  _88
REMARK   37  A    between atoms: _88  and  _89
REMARK   38  A    between atoms: _88  and  _91
REMARK   39  A    between atoms: _91  and  _92
REMARK   40  A    between atoms: _94  and  _96
REMARK   41  A    between atoms: _96  and  _97
REMARK   42  A    between atoms: _96  and  _99
REMARK   43  A    between atoms: _99  and  _100
REMARK   44  A    between atoms: _105  and  _107
REMARK   45  A    between atoms: _107  and  _108
REMARK   46  A    between atoms: _107  and  _110
REMARK   47  A    between atoms: _110  and  _111
REMARK   48  A    between atoms: _111  and  _112
REMARK   49  A    between atoms: _112  and  _113
REMARK   50  A    between atoms: _123  and  _124
REMARK   51  A    between atoms: _129  and  _131
REMARK   52  A    between atoms: _131  and  _132
REMARK   53  A    between atoms: _131  and  _134
REMARK   54  A    between atoms: _134  and  _135
REMARK   55  A    between atoms: _140  and  _141
REMARK   56  A    between atoms: _143  and  _145
REMARK   57  A    between atoms: _145  and  _146
REMARK   58  A    between atoms: _145  and  _148
REMARK   59  A    between atoms: _148  and  _149
REMARK   60  A    between atoms: _154  and  _155
REMARK   61  A    between atoms: _157  and  _159
REMARK   62  A    between atoms: _159  and  _160
REMARK   63  A    between atoms: _159  and  _162
REMARK   64  A    between atoms: _162  and  _163
REMARK   65  A    between atoms: _168  and  _169
REMARK   66  A    between atoms: _171  and  _173
REMARK   67  A    between atoms: _173  and  _174
REMARK   68  A    between atoms: _173  and  _176
REMARK   69  A    between atoms: _179  and  _181
REMARK   70  A    between atoms: _181  and  _182
REMARK   71  A    between atoms: _181  and  _184
REMARK   72  A    between atoms: _184  and  _185
REMARK   73  A    between atoms: _191  and  _192
REMARK   74  A    between atoms: _197  and  _199
REMARK   75  A    between atoms: _199  and  _200
REMARK   76  A    between atoms: _199  and  _202
REMARK   77  A    between atoms: _202  and  _203
REMARK   78  A    between atoms: _205  and  _207
REMARK   79  A    between atoms: _207  and  _208
REMARK   80  A    between atoms: _207  and  _210
REMARK   81  A    between atoms: _210  and  _211
REMARK   82  A    between atoms: _211  and  _212
REMARK   83  A    between atoms: _215  and  _217
REMARK   84  A    between atoms: _217  and  _218
REMARK   85  A    between atoms: _217  and  _220
REMARK   86  A    between atoms: _220  and  _221
REMARK   87  A    between atoms: _226  and  _227
REMARK   88  A    between atoms: _229  and  _231
REMARK   89  A    between atoms: _231  and  _232
REMARK   90  A    between atoms: _231  and  _234
REMARK   91  A    between atoms: _234  and  _235
REMARK   92  A    between atoms: _240  and  _242
REMARK   93  A    between atoms: _242  and  _243
REMARK   94  A    between atoms: _242  and  _245
REMARK   95  A    between atoms: _245  and  _246
REMARK   96  A    between atoms: _251  and  _253
REMARK   97  A    between atoms: _253  and  _254
REMARK   98  A    between atoms: _253  and  _256
REMARK   99  A    between atoms: _256  and  _257
REMARK  100  A    between atoms: _257  and  _258
REMARK  101  A    between atoms: _260  and  _262
REMARK  102  A    between atoms: _262  and  _263
REMARK  103  A    between atoms: _262  and  _265
REMARK  104  A    between atoms: _265  and  _266
REMARK  105  A    between atoms: _271  and  _272
REMARK  106  A    between atoms: _274  and  _276
REMARK  107  A    between atoms: _276  and  _277
REMARK  108  A    between atoms: _276  and  _279
REMARK  109  A    between atoms: _279  and  _280
REMARK  110  A    between atoms: _283  and  _285
REMARK  111  A    between atoms: _285  and  _286
REMARK  112  A    between atoms: _285  and  _288
REMARK  113  A    between atoms: _288  and  _289
REMARK  114  A    between atoms: _289  and  _497
REMARK  115  A    between atoms: _290  and  _292
REMARK  116  A    between atoms: _292  and  _293
REMARK  117  A    between atoms: _292  and  _295
REMARK  118  A    between atoms: _295  and  _296
REMARK  119  A    between atoms: _299  and  _301
REMARK  120  A    between atoms: _301  and  _302
REMARK  121  A    between atoms: _301  and  _304
REMARK  122  A    between atoms: _304  and  _305
REMARK  123  A    between atoms: _310  and  _311
REMARK  124  A    between atoms: _313  and  _315
REMARK  125  A    between atoms: _315  and  _316
REMARK  126  A    between atoms: _315  and  _318
REMARK  127  A    between atoms: _318  and  _319
REMARK  128  A    between atoms: _324  and  _325
REMARK  129  A    between atoms: _327  and  _329
REMARK  130  A    between atoms: _329  and  _330
REMARK  131  A    between atoms: _329  and  _332
REMARK  132  A    between atoms: _332  and  _333
REMARK  133  A    between atoms: _333  and  _334
REMARK  134  A    between atoms: _337  and  _339
REMARK  135  A    between atoms: _339  and  _340
REMARK  136  A    between atoms: _339  and  _342
REMARK  137  A    between atoms: _342  and  _343
REMARK  138  A    between atoms: _348  and  _349
REMARK  139  A    between atoms: _351  and  _353
REMARK  140  A    between atoms: _353  and  _354
REMARK  141  A    between atoms: _353  and  _356
REMARK  142  A    between atoms: _356  and  _357
REMARK  143  A    between atoms: _362  and  _364
REMARK  144  A    between atoms: _364  and  _365
REMARK  145  A    between atoms: _364  and  _367
REMARK  146  A    between atoms: _367  and  _368
REMARK  147  A    between atoms: _371  and  _373
REMARK  148  A    between atoms: _373  and  _374
REMARK  149  A    between atoms: _373  and  _376
REMARK  150  A    between atoms: _376  and  _377
REMARK  151  A    between atoms: _382  and  _384
REMARK  152  A    between atoms: _384  and  _385
REMARK  153  A    between atoms: _384  and  _387
REMARK  154  A    between atoms: _387  and  _388
REMARK  155  A    between atoms: _398  and  _400
REMARK  156  A    between atoms: _400  and  _401
REMARK  157  A    between atoms: _400  and  _403
REMARK  158  A    between atoms: _403  and  _404
REMARK  159  A    between atoms: _410  and  _412
REMARK  160  A    between atoms: _412  and  _413
REMARK  161  A    between atoms: _412  and  _415
REMARK  162  A    between atoms: _415  and  _416
REMARK  163  A    between atoms: _419  and  _421
REMARK  164  A    between atoms: _421  and  _422
REMARK  165  A    between atoms: _421  and  _424
REMARK  166  A    between atoms: _424  and  _425
REMARK  167  A    between atoms: _425  and  _426
REMARK  168  A    between atoms: _426  and  _427
REMARK  169  A    between atoms: _436  and  _438
REMARK  170  A    between atoms: _438  and  _439
REMARK  171  A    between atoms: _438  and  _441
REMARK  172  A    between atoms: _441  and  _442
REMARK  173  A    between atoms: _447  and  _449
REMARK  174  A    between atoms: _449  and  _450
REMARK  175  A    between atoms: _449  and  _452
REMARK  176  A    between atoms: _452  and  _453
REMARK  177  A    between atoms: _453  and  _454
REMARK  178  A    between atoms: _454  and  _455
REMARK  179  A    between atoms: _464  and  _466
REMARK  180  A    between atoms: _466  and  _467
REMARK  181  A    between atoms: _470  and  _472
REMARK  182  A    between atoms: _472  and  _473
REMARK  183  A    between atoms: _475  and  _477
REMARK  184  A    between atoms: _477  and  _478
REMARK  185  A    between atoms: _477  and  _480
REMARK  186  A    between atoms: _480  and  _481
REMARK  187  A    between atoms: _491  and  _493
REMARK  188  A    between atoms: _493  and  _494
REMARK  189  A    between atoms: _493  and  _496
REMARK  190  A    between atoms: _496  and  _497
REMARK  191  A    between atoms: _498  and  _500
REMARK  192  A    between atoms: _500  and  _501
REMARK  193  A    between atoms: _504  and  _506
REMARK  194  A    between atoms: _506  and  _507
REMARK  195  A    between atoms: _506  and  _509
REMARK  196  A    between atoms: _509  and  _510
REMARK  197  A    between atoms: _513  and  _515
REMARK  198  A    between atoms: _515  and  _516
REMARK  199  A    between atoms: _515  and  _518
REMARK  200  A    between atoms: _518  and  _519
REMARK  201  A    between atoms: _524  and  _525
REMARK  202  A    between atoms: _527  and  _529
REMARK  203  A    between atoms: _529  and  _530
REMARK  204  A    between atoms: _529  and  _532
REMARK  205  A    between atoms: _532  and  _533
REMARK  206  A    between atoms: _535  and  _537
REMARK  207  A    between atoms: _537  and  _538
REMARK  208  A    between atoms: _537  and  _540
REMARK  209  A    between atoms: _540  and  _541
REMARK  210  A    between atoms: _547  and  _549
REMARK  211  A    between atoms: _549  and  _550
REMARK  212  A    between atoms: _549  and  _552
REMARK  213  A    between atoms: _552  and  _553
REMARK  214  A    between atoms: _556  and  _558
REMARK  215  A    between atoms: _558  and  _559
REMARK  216  A    between atoms: _558  and  _561
REMARK  217  A    between atoms: _561  and  _562
REMARK  218  A    between atoms: _562  and  _563
REMARK  219  A    between atoms: _565  and  _567
REMARK  220  A    between atoms: _567  and  _568
REMARK  221  A    between atoms: _567  and  _570
REMARK  222  A    between atoms: _570  and  _571
REMARK  223  A    between atoms: _573  and  _575
REMARK  224  A    between atoms: _575  and  _576
REMARK  225  A    between atoms: _575  and  _578
REMARK  226  A    between atoms: _578  and  _579
REMARK  227  A    between atoms: _581  and  _583
REMARK  228  A    between atoms: _583  and  _584
REMARK  229  A    between atoms: _583  and  _586
REMARK  230  A    between atoms: _586  and  _587
REMARK  231  A    between atoms: _592  and  _594
REMARK  232  A    between atoms: _594  and  _595
REMARK  233  A    between atoms: _594  and  _597
REMARK  234  A    between atoms: _597  and  _598
REMARK  235  A    between atoms: _603  and  _605
REMARK  236  A    between atoms: _605  and  _606
REMARK  237  A    between atoms: _605  and  _608
REMARK  238  A    between atoms: _608  and  _609
REMARK  239  A    between atoms: _612  and  _614
REMARK  240  A    between atoms: _614  and  _615
REMARK  241  A    between atoms: _618  and  _620
REMARK  242  A    between atoms: _620  and  _621
REMARK  243  A    between atoms: _620  and  _623
REMARK  244  A    between atoms: _623  and  _624
REMARK  245  A    between atoms: _629  and  _631
REMARK  246  A    between atoms: _631  and  _632
REMARK  247  A    between atoms: _631  and  _634
REMARK  248  A    between atoms: _634  and  _635
REMARK  249  A    between atoms: _640  and  _641
REMARK  250  A    between atoms: _643  and  _645
REMARK  251  A    between atoms: _645  and  _646
REMARK  252  A    between atoms: _645  and  _648
REMARK  253  A    between atoms: _648  and  _649
REMARK  254  A    between atoms: _654  and  _655
REMARK  255  A    between atoms: _657  and  _659
REMARK  256  A    between atoms: _659  and  _660
REMARK  257  A    between atoms: _659  and  _662
REMARK  258  A    between atoms: _665  and  _667
REMARK  259  A    between atoms: _667  and  _668
REMARK  260  A    between atoms: _667  and  _670
REMARK  261  A    between atoms: _670  and  _671
REMARK  262  A    between atoms: _676  and  _678
REMARK  263  A    between atoms: _678  and  _679
REMARK  264  A    between atoms: _682  and  _684
REMARK  265  A    between atoms: _684  and  _685
REMARK  266  A    between atoms: _684  and  _687
REMARK  267  A    between atoms: _687  and  _688
REMARK  268  A    between atoms: _688  and  _689
REMARK  269  A    between atoms: _689  and  _690
REMARK  270  A    between atoms: _699  and  _701
REMARK  271  A    between atoms: _701  and  _702
REMARK  272  A    between atoms: _701  and  _704
REMARK  273  A    between atoms: _704  and  _705
REMARK  274  A    between atoms: _708  and  _710
REMARK  275  A    between atoms: _710  and  _711
REMARK  276  A    between atoms: _710  and  _713
REMARK  277  A    between atoms: _713  and  _714
REMARK  278  A    between atoms: _717  and  _719
REMARK  279  A    between atoms: _719  and  _720
REMARK  280  A    between atoms: _719  and  _722
REMARK  281  A    between atoms: _722  and  _723
REMARK                            x       y       z     vdW  Elec       q    Type
REMARK                         _______ _______ _______ _____ _____    ______ ____
ROOT
ATOM      1  CB  GLN A   1       6.641  28.672  10.566  0.00  0.00    +0.035 C 
ENDROOT
BRANCH   1   2
ATOM      2  CA  GLN A   1       5.840  29.517   9.579  0.00  0.00    +0.134 C 
BRANCH   2   3
ATOM      3  N   GLN A   1       4.801  28.723   8.934  0.00  0.00    -0.239 NA
ATOM      4  H   GLN A   1       4.681  27.724   9.196  0.00  0.00    +0.142 HD
ENDBRANCH   2   3
BRANCH   2   5
ATOM      5  C   GLN A   1       6.845  29.999   8.523  0.00  0.00    +0.224 C 
ATOM      6  O   GLN A   1       7.395  31.108   8.600  0.00  0.00    -0.287 OA
ENDBRANCH   2   5
ENDBRANCH   1   2
BRANCH   1   7
ATOM      7  CG  GLN A   1       5.972  28.232  11.843  0.00  0.00    +0.087 C 
BRANCH   7   8
ATOM      8  CD  GLN A   1       6.833  27.223  12.594  0.00  0.00    +0.219 C 
ATOM      9  NE2 GLN A   1       7.388  27.595  13.733  0.00  0.00    -0.329 N 
ATOM     10 HE21 GLN A   1       7.988  26.930  14.261  0.00  0.00    +0.145 HD
ATOM     11 HE22 GLN A   1       7.225  28.553  14.102  0.00  0.00    +0.145 HD
ATOM     12  OE1 GLN A   1       6.987  26.096  12.099  0.00  0.00    -0.275 OA
ENDBRANCH   7   8
ENDBRANCH   1   7
TORSDOF 5
REMARK  Name = ../refined-set-2016/1qka/1qka_pocket.pdb
REMARK  281 active torsions:
REMARK  status: ('A' for Active; 'I' for Inactive)
REMARK    1  A    between atoms: _1  and  _3
REMARK    2  A    between atoms: _3  and  _4
REMARK    3  A    between atoms: _3  and  _6
REMARK    4  A    between atoms: _6  and  _7
REMARK    5  A    between atoms: _12  and  _14
REMARK    6  A    between atoms: _14  and  _15
REMARK    7  A    between atoms: _17  and  _19
REMARK    8  A    between atoms: _19  and  _20
REMARK    9  A    between atoms: _19  and  _22
REMARK   10  A    between atoms: _22  and  _23
REMARK   11  A    between atoms: _25  and  _27
REMARK   12  A    between atoms: _27  and  _28
REMARK   13  A    between atoms: _27  and  _30
REMARK   14  A    between atoms: _30  and  _31
REMARK   15  A    between atoms: _31  and  _32
REMARK   16  A    between atoms: _37  and  _39
REMARK   17  A    between atoms: _39  and  _40
REMARK   18  A    between atoms: _39  and  _42
REMARK   19  A    between atoms: _42  and  _43
REMARK   20  A    between atoms: _46  and  _48
REMARK   21  A    between atoms: _48  and  _49
REMARK   22  A    between atoms: _48  and  _51
REMARK   23  A    between atoms: _51  and  _52
REMARK   24  A    between atoms: _52  and  _53
REMARK   25  A    between atoms: _56  and  _58
REMARK   26  A    between atoms: _58  and  _59
REMARK   27  A    between atoms: _61  and  _63
REMARK   28  A    between atoms: _63  and  _64
REMARK   29  A    between atoms: _63  and  _66
REMARK   30  A    between atoms: _70  and  _71
REMARK   31  A    between atoms: _76  and  _78
REMARK   32  A    between atoms: _78  and  _79
REMARK   33  A    between atoms: _78  and  _81
REMARK   34  A    between atoms: _81  and  _82
REMARK   35  A    between atoms: _82  and  _83
REMARK   36  A    between atoms: _86  and  _88
REMARK   37  A    between atoms: _88  and  _89
REMARK   38  A    between atoms: _88  and  _91
REMARK   39  A    between atoms: _91  and  _92
REMARK   40  A    between atoms: _94  and  _96
REMARK   41  A    between atoms: _96  and  _97
REMARK   42  A    between atoms: _96  and  _99
REMARK   43  A    between atoms: _99  and  _100
REMARK   44  A    between atoms: _105  and  _107
REMARK   45  A    between atoms: _107  and  _108
REMARK   46  A    between atoms: _107  and  _110
REMARK   47  A    between atoms: _110  and  _111
REMARK   48  A    between atoms: _111  and  _112
REMARK   49  A    between atoms: _112  and  _113
REMARK   50  A    between atoms: _123  and  _124
REMARK   51  A    between atoms: _129  and  _131
REMARK   52  A    between atoms: _131  and  _132
REMARK   53  A    between atoms: _131  and  _134
REMARK   54  A    between atoms: _134  and  _135
REMARK   55  A    between atoms: _140  and  _141
REMARK   56  A    between atoms: _143  and  _145
REMARK   57  A    between atoms: _145  and  _146
REMARK   58  A    between atoms: _145  and  _148
REMARK   59  A    between atoms: _148  and  _149
REMARK   60  A    between atoms: _154  and  _155
REMARK   61  A    between atoms: _157  and  _159
REMARK   62  A    between atoms: _159  and  _160
REMARK   63  A    between atoms: _159  and  _162
REMARK   64  A    between atoms: _162  and  _163
REMARK   65  A    between atoms: _168  and  _169
REMARK   66  A    between atoms: _171  and  _173
REMARK   67  A    between atoms: _173  and  _174
REMARK   68  A    between atoms: _173  and  _176
REMARK   69  A    between atoms: _179  and  _181
REMARK   70  A    between atoms: _181  and  _182
REMARK   71  A    between atoms: _181  and  _184
REMARK   72  A    between atoms: _184  and  _185
REMARK   73  A    between atoms: _191  and  _192
REMARK   74  A    between atoms: _197  and  _199
REMARK   75  A    between atoms: _199  and  _200
REMARK   76  A    between atoms: _199  and  _202
REMARK   77  A    between atoms: _202  and  _203
REMARK   78  A    between atoms: _205  and  _207
REMARK   79  A    between atoms: _207  and  _208
REMARK   80  A    between atoms: _207  and  _210
REMARK   81  A    between atoms: _210  and  _211
REMARK   82  A    between atoms: _211  and  _212
REMARK   83  A    between atoms: _215  and  _217
REMARK   84  A    between atoms: _217  and  _218
REMARK   85  A    between atoms: _217  and  _220
REMARK   86  A    between atoms: _220  and  _221
REMARK   87  A    between atoms: _226  and  _227
REMARK   88  A    between atoms: _229  and  _231
REMARK   89  A    between atoms: _231  and  _232
REMARK   90  A    between atoms: _231  and  _234
REMARK   91  A    between atoms: _234  and  _235
REMARK   92  A    between atoms: _240  and  _242
REMARK   93  A    between atoms: _242  and  _243
REMARK   94  A    between atoms: _242  and  _245
REMARK   95  A    between atoms: _245  and  _246
REMARK   96  A    between atoms: _251  and  _253
REMARK   97  A    between atoms: _253  and  _254
REMARK   98  A    between atoms: _253  and  _256
REMARK   99  A    between atoms: _256  and  _257
REMARK  100  A    between atoms: _257  and  _258
REMARK  101  A    between atoms: _260  and  _262
REMARK  102  A    between atoms: _262  and  _263
REMARK  103  A    between atoms: _262  and  _265
REMARK  104  A    between atoms: _265  and  _266
REMARK  105  A    between atoms: _271  and  _272
REMARK  106  A    between atoms: _274  and  _276
REMARK  107  A    between atoms: _276  and  _277
REMARK  108  A    between atoms: _276  and  _279
REMARK  109  A    between atoms: _279  and  _280
REMARK  110  A    between atoms: _283  and  _285
REMARK  111  A    between atoms: _285  and  _286
REMARK  112  A    between atoms: _285  and  _288
REMARK  113  A    between atoms: _288  and  _289
REMARK  114  A    between atoms: _289  and  _497
REMARK  115  A    between atoms: _290  and  _292
REMARK  116  A    between atoms: _292  and  _293
REMARK  117  A    between atoms: _292  and  _295
REMARK  118  A    between atoms: _295  and  _296
REMARK  119  A    between atoms: _299  and  _301
REMARK  120  A    between atoms: _301  and  _302
REMARK  121  A    between atoms: _301  and  _304
REMARK  122  A    between atoms: _304  and  _305
REMARK  123  A    between atoms: _310  and  _311
REMARK  124  A    between atoms: _313  and  _315
REMARK  125  A    between atoms: _315  and  _316
REMARK  126  A    between atoms: _315  and  _318
REMARK  127  A    between atoms: _318  and  _319
REMARK  128  A    between atoms: _324  and  _325
REMARK  129  A    between atoms: _327  and  _329
REMARK  130  A    between atoms: _329  and  _330
REMARK  131  A    between atoms: _329  and  _332
REMARK  132  A    between atoms: _332  and  _333
REMARK  133  A    between atoms: _333  and  _334
REMARK  134  A    between atoms: _337  and  _339
REMARK  135  A    between atoms: _339  and  _340
REMARK  136  A    between atoms: _339  and  _342
REMARK  137  A    between atoms: _342  and  _343
REMARK  138  A    between atoms: _348  and  _349
REMARK  139  A    between atoms: _351  and  _353
REMARK  140  A    between atoms: _353  and  _354
REMARK  141  A    between atoms: _353  and  _356
REMARK  142  A    between atoms: _356  and  _357
REMARK  143  A    between atoms: _362  and  _364
REMARK  144  A    between atoms: _364  and  _365
REMARK  145  A    between atoms: _364  and  _367
REMARK  146  A    between atoms: _367  and  _368
REMARK  147  A    between atoms: _371  and  _373
REMARK  148  A    between atoms: _373  and  _374
REMARK  149  A    between atoms: _373  and  _376
REMARK  150  A    between atoms: _376  and  _377
REMARK  151  A    between atoms: _382  and  _384
REMARK  152  A    between atoms: _384  and  _385
REMARK  153  A    between atoms: _384  and  _387
REMARK  154  A    between atoms: _387  and  _388
REMARK  155  A    between atoms: _398  and  _400
REMARK  156  A    between atoms: _400  and  _401
REMARK  157  A    between atoms: _400  and  _403
REMARK  158  A    between atoms: _403  and  _404
REMARK  159  A    between atoms: _410  and  _412
REMARK  160  A    between atoms: _412  and  _413
REMARK  161  A    between atoms: _412  and  _415
REMARK  162  A    between atoms: _415  and  _416
REMARK  163  A    between atoms: _419  and  _421
REMARK  164  A    between atoms: _421  and  _422
REMARK  165  A    between atoms: _421  and  _424
REMARK  166  A    between atoms: _424  and  _425
REMARK  167  A    between atoms: _425  and  _426
REMARK  168  A    between atoms: _426  and  _427
REMARK  169  A    between atoms: _436  and  _438
REMARK  170  A    between atoms: _438  and  _439
REMARK  171  A    between atoms: _438  and  _441
REMARK  172  A    between atoms: _441  and  _442
REMARK  173  A    between atoms: _447  and  _449
REMARK  174  A    between atoms: _449  and  _450
REMARK  175  A    between atoms: _449  and  _452
REMARK  176  A    between atoms: _452  and  _453
REMARK  177  A    between atoms: _453  and  _454
REMARK  178  A    between atoms: _454  and  _455
REMARK  179  A    between atoms: _464  and  _466
REMARK  180  A    between atoms: _466  and  _467
REMARK  181  A    between atoms: _470  and  _472
REMARK  182  A    between atoms: _472  and  _473
REMARK  183  A    between atoms: _475  and  _477
REMARK  184  A    between atoms: _477  and  _478
REMARK  185  A    between atoms: _477  and  _480
REMARK  186  A    between atoms: _480  and  _481
REMARK  187  A    between atoms: _491  and  _493
REMARK  188  A    between atoms: _493  and  _494
REMARK  189  A    between atoms: _493  and  _496
REMARK  190  A    between atoms: _496  and  _497
REMARK  191  A    between atoms: _498  and  _500
REMARK  192  A    between atoms: _500  and  _501
REMARK  193  A    between atoms: _504  and  _506
REMARK  194  A    between atoms: _506  and  _507
REMARK  195  A    between atoms: _506  and  _509
REMARK  196  A    between atoms: _509  and  _510
REMARK  197  A    between atoms: _513  and  _515
REMARK  198  A    between atoms: _515  and  _516
REMARK  199  A    between atoms: _515  and  _518
REMARK  200  A    between atoms: _518  and  _519
REMARK  201  A    between atoms: _524  and  _525
REMARK  202  A    between atoms: _527  and  _529
REMARK  203  A    between atoms: _529  and  _530
REMARK  204  A    between atoms: _529  and  _532
REMARK  205  A    between atoms: _532  and  _533
REMARK  206  A    between atoms: _535  and  _537
REMARK  207  A    between atoms: _537  and  _538
REMARK  208  A    between atoms: _537  and  _540
REMARK  209  A    between atoms: _540  and  _541
REMARK  210  A    between atoms: _547  and  _549
REMARK  211  A    between atoms: _549  and  _550
REMARK  212  A    between atoms: _549  and  _552
REMARK  213  A    between atoms: _552  and  _553
REMARK  214  A    between atoms: _556  and  _558
REMARK  215  A    between atoms: _558  and  _559
REMARK  216  A    between atoms: _558  and  _561
REMARK  217  A    between atoms: _561  and  _562
REMARK  218  A    between atoms: _562  and  _563
REMARK  219  A    between atoms: _565  and  _567
REMARK  220  A    between atoms: _567  and  _568
REMARK  221  A    between atoms: _567  and  _570
REMARK  222  A    between atoms: _570  and  _571
REMARK  223  A    between atoms: _573  and  _575
REMARK  224  A    between atoms: _575  and  _576
REMARK  225  A    between atoms: _575  and  _578
REMARK  226  A    between atoms: _578  and  _579
REMARK  227  A    between atoms: _581  and  _583
REMARK  228  A    between atoms: _583  and  _584
REMARK  229  A    between atoms: _583  and  _586
REMARK  230  A    between atoms: _586  and  _587
REMARK  231  A    between atoms: _592  and  _594
REMARK  232  A    between atoms: _594  and  _595
REMARK  233  A    between atoms: _594  and  _597
REMARK  234  A    between atoms: _597  and  _598
REMARK  235  A    between atoms: _603  and  _605
REMARK  236  A    between atoms: _605  and  _606
REMARK  237  A    between atoms: _605  and  _608
REMARK  238  A    between atoms: _608  and  _609
REMARK  239  A    between atoms: _612  and  _614
REMARK  240  A    between atoms: _614  and  _615
REMARK  241  A    between atoms: _618  and  _620
REMARK  242  A    between atoms: _620  and  _621
REMARK  243  A    between atoms: _620  and  _623
REMARK  244  A    between atoms: _623  and  _624
REMARK  245  A    between atoms: _629  and  _631
REMARK  246  A    between atoms: _631  and  _632
REMARK  247  A    between atoms: _631  and  _634
REMARK  248  A    between atoms: _634  and  _635
REMARK  249  A    between atoms: _640  and  _641
REMARK  250  A    between atoms: _643  and  _645
REMARK  251  A    between atoms: _645  and  _646
REMARK  252  A    between atoms: _645  and  _648
REMARK  253  A    between atoms: _648  and  _649
REMARK  254  A    between atoms: _654  and  _655
REMARK  255  A    between atoms: _657  and  _659
REMARK  256  A    between atoms: _659  and  _660
REMARK  257  A    between atoms: _659  and  _662
REMARK  258  A    between atoms: _665  and  _667
REMARK  259  A    between atoms: _667  and  _668
REMARK  260  A    between atoms: _667  and  _670
REMARK  261  A    between atoms: _670  and  _671
REMARK  262  A    between atoms: _676  and  _678
REMARK  263  A    between atoms: _678  and  _679
REMARK  264  A    between atoms: _682  and  _684
REMARK  265  A    between atoms: _684  and  _685
REMARK  266  A    between atoms: _684  and  _687
REMARK  267  A    between atoms: _687  and  _688
REMARK  268  A    between atoms: _688  and  _689
REMARK  269  A    between atoms: _689  and  _690
REMARK  270  A    between atoms: _699  and  _701
REMARK  271  A    between atoms: _701  and  _702
REMARK  272  A    between atoms: _701  and  _704
REMARK  273  A    between atoms: _704  and  _705
REMARK  274  A    between atoms: _708  and  _710
REMARK  275  A    between atoms: _710  and  _711
REMARK  276  A    between atoms: _710  and  _713
REMARK  277  A    between atoms: _713  and  _714
REMARK  278  A    between atoms: _717  and  _719
REMARK  279  A    between atoms: _719  and  _720
REMARK  280  A    between atoms: _719  and  _722
REMARK  281  A    between atoms: _722  and  _723
REMARK                            x       y       z     vdW  Elec       q    Type
REMARK                         _______ _______ _______ _____ _____    ______ ____
ROOT
ATOM      1  C   VAL A   4       2.166  20.594   9.189  0.00  0.00    +0.244 C 
ATOM      2  N   PRO A   5       1.574  21.791   9.272  0.00  0.00    -0.272 N 
ATOM      3  CD  PRO A   5       1.122  22.458  10.514  0.00  0.00    +0.094 C 
ATOM      4  CG  PRO A   5       0.075  23.432   9.958  0.00  0.00    +0.024 C 
ATOM      5  CB  PRO A   5       0.674  23.885   8.653  0.00  0.00    +0.031 C 
ATOM      6  CA  PRO A   5       1.274  22.603   8.097  0.00  0.00    +0.152 C 
ATOM      7  O   VAL A   4       2.518  20.137   8.080  0.00  0.00    -0.273 OA
ENDROOT
BRANCH   6   8
ATOM      8  C   PRO A   5       2.557  22.874   7.328  0.00  0.00    +0.241 C 
ATOM      9  N   GLU A   6       3.648  23.132   8.067  0.00  0.00    -0.297 N 
ATOM     10  H   GLU A   6       3.588  23.139   9.105  0.00  0.00    +0.150 HD
ATOM     11  O   PRO A   5       2.610  22.729   6.105  0.00  0.00    -0.273 OA
BRANCH   9  12
ATOM     12  CA  GLU A   6       4.927  23.404   7.399  0.00  0.00    +0.149 C 
BRANCH  12  13
ATOM     13  C   GLU A   6       5.482  22.154   6.720  0.00  0.00    +0.241 C 
ATOM     14  N   SER A   7       5.376  21.032   7.441  0.00  0.00    -0.295 N 
ATOM     15  H   SER A   7       4.906  21.035   8.369  0.00  0.00    +0.150 HD
ATOM     16  O   GLU A   6       5.925  22.239   5.577  0.00  0.00    -0.273 OA
BRANCH  14  17
ATOM     17  CA  SER A   7       5.946  19.789   6.881  0.00  0.00    +0.178 C 
BRANCH  17  18
ATOM     18  C   SER A   7       5.156  19.317   5.692  0.00  0.00    +0.243 C 
ATOM     19  N   ASN A   8       3.843  19.592   5.692  0.00  0.00    -0.298 N 
ATOM     20  H   ASN A   8       3.434  20.118   6.490  0.00  0.00    +0.150 HD
ATOM     21  O   SER A   7       5.698  18.676   4.783  0.00  0.00    -0.273 OA
BRANCH  19  22
ATOM     22  CA  ASN A   8       2.980  19.171   4.602  0.00  0.00    +0.146 C 
BRANCH  22  23
ATOM     23  C   ASN A   8       3.470  19.742   3.273  0.00  0.00    +0.227 C 
ATOM     24  O   ASN A   8       3.474  19.055   2.263  0.00  0.00    -0.286 OA
ENDBRANCH  22  23
BRANCH  22  25
ATOM     25  CB  ASN A   8       1.526  19.651   4.836  0.00  0.00    +0.112 C 
BRANCH  25  26
ATOM     26  CG  ASN A   8       0.783  18.824   5.870  0.00  0.00    +0.222 C 
ATOM     27  ND2 ASN A   8      -0.334  19.359   6.361  0.00  0.00    -0.329 N 
ATOM     28 HD21 ASN A   8      -0.909  18.826   7.045  0.00  0.00    +0.145 HD
ATOM     29 HD22 ASN A   8      -0.631  20.309   6.060  0.00  0.00    +0.145 HD
ATOM     30  OD1 ASN A   8       1.180  17.711   6.188  0.00  0.00    -0.275 OA
ENDBRANCH  25  26
ENDBRANCH  22  25
ENDBRANCH  19  22
ENDBRANCH  17  18
BRANCH  17  31
ATOM     31  CB  SER A   7       6.044  18.734   8.005  0.00  0.00    +0.166 C 
BRANCH  31  32
ATOM     32  OG  SER A   7       6.963  19.264   8.967  0.00  0.00    -0.380 OA
ATOM     33  H   SER A   7       6.617  20.124   9.313  0.00  0.00    +0.211 HD
ENDBRANCH  31  32
ENDBRANCH  17  31
ENDBRANCH  14  17
ENDBRANCH  12  13
BRANCH  12  34
ATOM     34  CB  GLU A   6       5.984  23.928   8.399  0.00  0.00    +0.041 C 
BRANCH  34  35
ATOM     35  CG  GLU A   6       5.681  25.286   9.014  0.00  0.00    +0.116 C 
BRANCH  35  36
ATOM     36  CD  GLU A   6       4.466  25.330   9.924  0.00  0.00    +0.365 C 
ATOM     37  OE2 GLU A   6       4.119  24.300  10.547  0.00  0.00    -0.246 OA
ATOM     38  OE1 GLU A   6       3.841  26.416  10.027  0.00  0.00    -0.246 OA
ENDBRANCH  35  36
ENDBRANCH  34  35
ENDBRANCH  12  34
ENDBRANCH   9  12
ENDBRANCH   6   8
BRANCH   1  39
ATOM     39  CA  VAL A   4       2.517  19.837  10.448  0.00  0.00    +0.149 C 
BRANCH  39  41
ATOM     40  C   GLY A   3       4.408  21.161  11.310  0.00  0.00    +0.243 C 
ATOM     41  N   VAL A   4       3.189  20.627  11.489  0.00  0.00    -0.297 N 
ATOM     42  H   VAL A   4       2.703  20.778  12.396  0.00  0.00    +0.150 HD
ATOM     43  O   GLY A   3       5.047  20.995  10.268  0.00  0.00    -0.273 OA
BRANCH  40  44
ATOM     44  CA  GLY A   3       4.900  21.983  12.476  0.00  0.00    +0.176 C 
BRANCH  44  47
ATOM     45  C   GLU A   2       7.161  22.151  13.270  0.00  0.00    +0.241 C 
ATOM     46  O   GLU A   2       6.969  21.180  14.037  0.00  0.00    -0.273 OA
ATOM     47  N   GLY A   3       6.253  22.586  12.379  0.00  0.00    -0.295 N 
ATOM     48  H   GLY A   3       6.485  23.304  11.663  0.00  0.00    +0.150 HD
BRANCH  45  49
ATOM     49  CA  GLU A   2       8.503  22.850  13.328  0.00  0.00    +0.149 C 
BRANCH  49  51
ATOM     50  C   ILE A   1       9.838  23.973  11.684  0.00  0.00    +0.238 C 
ATOM     51  N   GLU A   2       8.634  23.872  12.264  0.00  0.00    -0.297 N 
ATOM     52  H   GLU A   2       7.836  24.477  11.983  0.00  0.00    +0.150 HD
ATOM     53  O   ILE A   1      10.822  23.287  11.942  0.00  0.00    -0.274 OA
BRANCH  50  54
ATOM     54  CA  ILE A   1       9.944  25.029  10.598  0.00  0.00    +0.145 C 
BRANCH  54  55
ATOM     55  CB  ILE A   1       9.351  24.455   9.318  0.00  0.00    +0.025 C 
ATOM     56  CG2 ILE A   1       9.190  25.532   8.236  0.00  0.00    +0.002 C 
BRANCH  55  57
ATOM     57  CG1 ILE A   1      10.248  23.316   8.775  0.00  0.00    +0.002 C 
ATOM     58  CD1 ILE A   1       9.511  22.557   7.669  0.00  0.00    +0.000 C 
ENDBRANCH  55  57
ENDBRANCH  54  55
BRANCH  54  59
ATOM     59  N   ILE A   1      11.312  25.497  10.371  0.00  0.00    -0.238 NA
ATOM     60  H   ILE A   1      12.026  24.843   9.992  0.00  0.00    +0.142 HD
ENDBRANCH  54  59
ENDBRANCH  50  54
ENDBRANCH  49  51
BRANCH  49  61
ATOM     61  CB  GLU A   2       8.613  23.562  14.689  0.00  0.00    +0.041 C 
BRANCH  61  62
ATOM     62  CG  GLU A   2       9.105  22.645  15.813  0.00  0.00    +0.116 C 
BRANCH  62  63
ATOM     63  CD  GLU A   2       9.140  23.300  17.184  0.00  0.00    +0.365 C 
ATOM     64  OE2 GLU A   2       9.901  22.773  18.033  0.00  0.00    -0.246 OA
ATOM     65  OE1 GLU A   2       8.408  24.282  17.410  0.00  0.00    -0.246 OA
ENDBRANCH  62  63
ENDBRANCH  61  62
ENDBRANCH  49  61
ENDBRANCH  45  49
ENDBRANCH  44  47
ENDBRANCH  40  44
ENDBRANCH  39  41
BRANCH  39  66
ATOM     66  CB  VAL A   4       1.302  19.111  11.073  0.00  0.00    +0.027 C 
ATOM     67  CG2 VAL A   4       1.815  18.076  12.083  0.00  0.00    +0.002 C 
ATOM     68  CG1 VAL A   4       0.442  18.436  10.011  0.00  0.00    +0.002 C 
ENDBRANCH  39  66
ENDBRANCH   1  39
TORSDOF 28
REMARK  Name = ../refined-set-2016/1qka/1qka_pocket.pdb
REMARK  281 active torsions:
REMARK  status: ('A' for Active; 'I' for Inactive)
REMARK    1  A    between atoms: _1  and  _3
REMARK    2  A    between atoms: _3  and  _4
REMARK    3  A    between atoms: _3  and  _6
REMARK    4  A    between atoms: _6  and  _7
REMARK    5  A    between atoms: _12  and  _14
REMARK    6  A    between atoms: _14  and  _15
REMARK    7  A    between atoms: _17  and  _19
REMARK    8  A    between atoms: _19  and  _20
REMARK    9  A    between atoms: _19  and  _22
REMARK   10  A    between atoms: _22  and  _23
REMARK   11  A    between atoms: _25  and  _27
REMARK   12  A    between atoms: _27  and  _28
REMARK   13  A    between atoms: _27  and  _30
REMARK   14  A    between atoms: _30  and  _31
REMARK   15  A    between atoms: _31  and  _32
REMARK   16  A    between atoms: _37  and  _39
REMARK   17  A    between atoms: _39  and  _40
REMARK   18  A    between atoms: _39  and  _42
REMARK   19  A    between atoms: _42  and  _43
REMARK   20  A    between atoms: _46  and  _48
REMARK   21  A    between atoms: _48  and  _49
REMARK   22  A    between atoms: _48  and  _51
REMARK   23  A    between atoms: _51  and  _52
REMARK   24  A    between atoms: _52  and  _53
REMARK   25  A    between atoms: _56  and  _58
REMARK   26  A    between atoms: _58  and  _59
REMARK   27  A    between atoms: _61  and  _63
REMARK   28  A    between atoms: _63  and  _64
REMARK   29  A    between atoms: _63  and  _66
REMARK   30  A    between atoms: _70  and  _71
REMARK   31  A    between atoms: _76  and  _78
REMARK   32  A    between atoms: _78  and  _79
REMARK   33  A    between atoms: _78  and  _81
REMARK   34  A    between atoms: _81  and  _82
REMARK   35  A    between atoms: _82  and  _83
REMARK   36  A    between atoms: _86  and  _88
REMARK   37  A    between atoms: _88  and  _89
REMARK   38  A    between atoms: _88  and  _91
REMARK   39  A    between atoms: _91  and  _92
REMARK   40  A    between atoms: _94  and  _96
REMARK   41  A    between atoms: _96  and  _97
REMARK   42  A    between atoms: _96  and  _99
REMARK   43  A    between atoms: _99  and  _100
REMARK   44  A    between atoms: _105  and  _107
REMARK   45  A    between atoms: _107  and  _108
REMARK   46  A    between atoms: _107  and  _110
REMARK   47  A    between atoms: _110  and  _111
REMARK   48  A    between atoms: _111  and  _112
REMARK   49  A    between atoms: _112  and  _113
REMARK   50  A    between atoms: _123  and  _124
REMARK   51  A    between atoms: _129  and  _131
REMARK   52  A    between atoms: _131  and  _132
REMARK   53  A    between atoms: _131  and  _134
REMARK   54  A    between atoms: _134  and  _135
REMARK   55  A    between atoms: _140  and  _141
REMARK   56  A    between atoms: _143  and  _145
REMARK   57  A    between atoms: _145  and  _146
REMARK   58  A    between atoms: _145  and  _148
REMARK   59  A    between atoms: _148  and  _149
REMARK   60  A    between atoms: _154  and  _155
REMARK   61  A    between atoms: _157  and  _159
REMARK   62  A    between atoms: _159  and  _160
REMARK   63  A    between atoms: _159  and  _162
REMARK   64  A    between atoms: _162  and  _163
REMARK   65  A    between atoms: _168  and  _169
REMARK   66  A    between atoms: _171  and  _173
REMARK   67  A    between atoms: _173  and  _174
REMARK   68  A    between atoms: _173  and  _176
REMARK   69  A    between atoms: _179  and  _181
REMARK   70  A    between atoms: _181  and  _182
REMARK   71  A    between atoms: _181  and  _184
REMARK   72  A    between atoms: _184  and  _185
REMARK   73  A    between atoms: _191  and  _192
REMARK   74  A    between atoms: _197  and  _199
REMARK   75  A    between atoms: _199  and  _200
REMARK   76  A    between atoms: _199  and  _202
REMARK   77  A    between atoms: _202  and  _203
REMARK   78  A    between atoms: _205  and  _207
REMARK   79  A    between atoms: _207  and  _208
REMARK   80  A    between atoms: _207  and  _210
REMARK   81  A    between atoms: _210  and  _211
REMARK   82  A    between atoms: _211  and  _212
REMARK   83  A    between atoms: _215  and  _217
REMARK   84  A    between atoms: _217  and  _218
REMARK   85  A    between atoms: _217  and  _220
REMARK   86  A    between atoms: _220  and  _221
REMARK   87  A    between atoms: _226  and  _227
REMARK   88  A    between atoms: _229  and  _231
REMARK   89  A    between atoms: _231  and  _232
REMARK   90  A    between atoms: _231  and  _234
REMARK   91  A    between atoms: _234  and  _235
REMARK   92  A    between atoms: _240  and  _242
REMARK   93  A    between atoms: _242  and  _243
REMARK   94  A    between atoms: _242  and  _245
REMARK   95  A    between atoms: _245  and  _246
REMARK   96  A    between atoms: _251  and  _253
REMARK   97  A    between atoms: _253  and  _254
REMARK   98  A    between atoms: _253  and  _256
REMARK   99  A    between atoms: _256  and  _257
REMARK  100  A    between atoms: _257  and  _258
REMARK  101  A    between atoms: _260  and  _262
REMARK  102  A    between atoms: _262  and  _263
REMARK  103  A    between atoms: _262  and  _265
REMARK  104  A    between atoms: _265  and  _266
REMARK  105  A    between atoms: _271  and  _272
REMARK  106  A    between atoms: _274  and  _276
REMARK  107  A    between atoms: _276  and  _277
REMARK  108  A    between atoms: _276  and  _279
REMARK  109  A    between atoms: _279  and  _280
REMARK  110  A    between atoms: _283  and  _285
REMARK  111  A    between atoms: _285  and  _286
REMARK  112  A    between atoms: _285  and  _288
REMARK  113  A    between atoms: _288  and  _289
REMARK  114  A    between atoms: _289  and  _497
REMARK  115  A    between atoms: _290  and  _292
REMARK  116  A    between atoms: _292  and  _293
REMARK  117  A    between atoms: _292  and  _295
REMARK  118  A    between atoms: _295  and  _296
REMARK  119  A    between atoms: _299  and  _301
REMARK  120  A    between atoms: _301  and  _302
REMARK  121  A    between atoms: _301  and  _304
REMARK  122  A    between atoms: _304  and  _305
REMARK  123  A    between atoms: _310  and  _311
REMARK  124  A    between atoms: _313  and  _315
REMARK  125  A    between atoms: _315  and  _316
REMARK  126  A    between atoms: _315  and  _318
REMARK  127  A    between atoms: _318  and  _319
REMARK  128  A    between atoms: _324  and  _325
REMARK  129  A    between atoms: _327  and  _329
REMARK  130  A    between atoms: _329  and  _330
REMARK  131  A    between atoms: _329  and  _332
REMARK  132  A    between atoms: _332  and  _333
REMARK  133  A    between atoms: _333  and  _334
REMARK  134  A    between atoms: _337  and  _339
REMARK  135  A    between atoms: _339  and  _340
REMARK  136  A    between atoms: _339  and  _342
REMARK  137  A    between atoms: _342  and  _343
REMARK  138  A    between atoms: _348  and  _349
REMARK  139  A    between atoms: _351  and  _353
REMARK  140  A    between atoms: _353  and  _354
REMARK  141  A    between atoms: _353  and  _356
REMARK  142  A    between atoms: _356  and  _357
REMARK  143  A    between atoms: _362  and  _364
REMARK  144  A    between atoms: _364  and  _365
REMARK  145  A    between atoms: _364  and  _367
REMARK  146  A    between atoms: _367  and  _368
REMARK  147  A    between atoms: _371  and  _373
REMARK  148  A    between atoms: _373  and  _374
REMARK  149  A    between atoms: _373  and  _376
REMARK  150  A    between atoms: _376  and  _377
REMARK  151  A    between atoms: _382  and  _384
REMARK  152  A    between atoms: _384  and  _385
REMARK  153  A    between atoms: _384  and  _387
REMARK  154  A    between atoms: _387  and  _388
REMARK  155  A    between atoms: _398  and  _400
REMARK  156  A    between atoms: _400  and  _401
REMARK  157  A    between atoms: _400  and  _403
REMARK  158  A    between atoms: _403  and  _404
REMARK  159  A    between atoms: _410  and  _412
REMARK  160  A    between atoms: _412  and  _413
REMARK  161  A    between atoms: _412  and  _415
REMARK  162  A    between atoms: _415  and  _416
REMARK  163  A    between atoms: _419  and  _421
REMARK  164  A    between atoms: _421  and  _422
REMARK  165  A    between atoms: _421  and  _424
REMARK  166  A    between atoms: _424  and  _425
REMARK  167  A    between atoms: _425  and  _426
REMARK  168  A    between atoms: _426  and  _427
REMARK  169  A    between atoms: _436  and  _438
REMARK  170  A    between atoms: _438  and  _439
REMARK  171  A    between atoms: _438  and  _441
REMARK  172  A    between atoms: _441  and  _442
REMARK  173  A    between atoms: _447  and  _449
REMARK  174  A    between atoms: _449  and  _450
REMARK  175  A    between atoms: _449  and  _452
REMARK  176  A    between atoms: _452  and  _453
REMARK  177  A    between atoms: _453  and  _454
REMARK  178  A    between atoms: _454  and  _455
REMARK  179  A    between atoms: _464  and  _466
REMARK  180  A    between atoms: _466  and  _467
REMARK  181  A    between atoms: _470  and  _472
REMARK  182  A    between atoms: _472  and  _473
REMARK  183  A    between atoms: _475  and  _477
REMARK  184  A    between atoms: _477  and  _478
REMARK  185  A    between atoms: _477  and  _480
REMARK  186  A    between atoms: _480  and  _481
REMARK  187  A    between atoms: _491  and  _493
REMARK  188  A    between atoms: _493  and  _494
REMARK  189  A    between atoms: _493  and  _496
REMARK  190  A    between atoms: _496  and  _497
REMARK  191  A    between atoms: _498  and  _500
REMARK  192  A    between atoms: _500  and  _501
REMARK  193  A    between atoms: _504  and  _506
REMARK  194  A    between atoms: _506  and  _507
REMARK  195  A    between atoms: _506  and  _509
REMARK  196  A    between atoms: _509  and  _510
REMARK  197  A    between atoms: _513  and  _515
REMARK  198  A    between atoms: _515  and  _516
REMARK  199  A    between atoms: _515  and  _518
REMARK  200  A    between atoms: _518  and  _519
REMARK  201  A    between atoms: _524  and  _525
REMARK  202  A    between atoms: _527  and  _529
REMARK  203  A    between atoms: _529  and  _530
REMARK  204  A    between atoms: _529  and  _532
REMARK  205  A    between atoms: _532  and  _533
REMARK  206  A    between atoms: _535  and  _537
REMARK  207  A    between atoms: _537  and  _538
REMARK  208  A    between atoms: _537  and  _540
REMARK  209  A    between atoms: _540  and  _541
REMARK  210  A    between atoms: _547  and  _549
REMARK  211  A    between atoms: _549  and  _550
REMARK  212  A    between atoms: _549  and  _552
REMARK  213  A    between atoms: _552  and  _553
REMARK  214  A    between atoms: _556  and  _558
REMARK  215  A    between atoms: _558  and  _559
REMARK  216  A    between atoms: _558  and  _561
REMARK  217  A    between atoms: _561  and  _562
REMARK  218  A    between atoms: _562  and  _563
REMARK  219  A    between atoms: _565  and  _567
REMARK  220  A    between atoms: _567  and  _568
REMARK  221  A    between atoms: _567  and  _570
REMARK  222  A    between atoms: _570  and  _571
REMARK  223  A    between atoms: _573  and  _575
REMARK  224  A    between atoms: _575  and  _576
REMARK  225  A    between atoms: _575  and  _578
REMARK  226  A    between atoms: _578  and  _579
REMARK  227  A    between atoms: _581  and  _583
REMARK  228  A    between atoms: _583  and  _584
REMARK  229  A    between atoms: _583  and  _586
REMARK  230  A    between atoms: _586  and  _587
REMARK  231  A    between atoms: _592  and  _594
REMARK  232  A    between atoms: _594  and  _595
REMARK  233  A    between atoms: _594  and  _597
REMARK  234  A    between atoms: _597  and  _598
REMARK  235  A    between atoms: _603  and  _605
REMARK  236  A    between atoms: _605  and  _606
REMARK  237  A    between atoms: _605  and  _608
REMARK  238  A    between atoms: _608  and  _609
REMARK  239  A    between atoms: _612  and  _614
REMARK  240  A    between atoms: _614  and  _615
REMARK  241  A    between atoms: _618  and  _620
REMARK  242  A    between atoms: _620  and  _621
REMARK  243  A    between atoms: _620  and  _623
REMARK  244  A    between atoms: _623  and  _624
REMARK  245  A    between atoms: _629  and  _631
REMARK  246  A    between atoms: _631  and  _632
REMARK  247  A    between atoms: _631  and  _634
REMARK  248  A    between atoms: _634  and  _635
REMARK  249  A    between atoms: _640  and  _641
REMARK  250  A    between atoms: _643  and  _645
REMARK  251  A    between atoms: _645  and  _646
REMARK  252  A    between atoms: _645  and  _648
REMARK  253  A    between atoms: _648  and  _649
REMARK  254  A    between atoms: _654  and  _655
REMARK  255  A    between atoms: _657  and  _659
REMARK  256  A    between atoms: _659  and  _660
REMARK  257  A    between atoms: _659  and  _662
REMARK  258  A    between atoms: _665  and  _667
REMARK  259  A    between atoms: _667  and  _668
REMARK  260  A    between atoms: _667  and  _670
REMARK  261  A    between atoms: _670  and  _671
REMARK  262  A    between atoms: _676  and  _678
REMARK  263  A    between atoms: _678  and  _679
REMARK  264  A    between atoms: _682  and  _684
REMARK  265  A    between atoms: _684  and  _685
REMARK  266  A    between atoms: _684  and  _687
REMARK  267  A    between atoms: _687  and  _688
REMARK  268  A    between atoms: _688  and  _689
REMARK  269  A    between atoms: _689  and  _690
REMARK  270  A    between atoms: _699  and  _701
REMARK  271  A    between atoms: _701  and  _702
REMARK  272  A    between atoms: _701  and  _704
REMARK  273  A    between atoms: _704  and  _705
REMARK  274  A    between atoms: _708  and  _710
REMARK  275  A    between atoms: _710  and  _711
REMARK  276  A    between atoms: _710  and  _713
REMARK  277  A    between atoms: _713  and  _714
REMARK  278  A    between atoms: _717  and  _719
REMARK  279  A    between atoms: _719  and  _720
REMARK  280  A    between atoms: _719  and  _722
REMARK  281  A    between atoms: _722  and  _723
REMARK                            x       y       z     vdW  Elec       q    Type
REMARK                         _______ _______ _______ _____ _____    ______ ____
ROOT
ATOM      1  NE  ARG A   1       4.731  14.742   4.166  0.00  0.00    -0.265 N 
ATOM      2  CZ  ARG A   1       4.195  15.406   5.194  0.00  0.00    +0.342 C 
ATOM      3  NH2 ARG A   1       4.922  15.747   6.263  0.00  0.00    -0.292 N 
ATOM      4 HH21 ARG A   1       4.479  16.264   7.049  0.00  0.00    +0.255 HD
ATOM      5 HH22 ARG A   1       5.930  15.495   6.308  0.00  0.00    +0.255 HD
ATOM      6  NH1 ARG A   1       2.891  15.692   5.187  0.00  0.00    -0.292 N 
ATOM      7 HH11 ARG A   1       2.468  16.209   5.984  0.00  0.00    +0.255 HD
ATOM      8 HH12 ARG A   1       2.298  15.398   4.384  0.00  0.00    +0.255 HD
ATOM      9  HE  ARG A   1       4.087  14.464   3.398  0.00  0.00    +0.259 HD
ENDROOT
BRANCH   1  10
ATOM     10  CD  ARG A   1       6.140  14.369   4.018  0.00  0.00    +0.174 C 
BRANCH  10  11
ATOM     11  CG  ARG A   1       6.955  15.611   3.614  0.00  0.00    +0.045 C 
BRANCH  11  12
ATOM     12  CB  ARG A   1       6.662  16.041   2.179  0.00  0.00    +0.029 C 
BRANCH  12  13
ATOM     13  CA  ARG A   1       7.562  17.164   1.622  0.00  0.00    +0.133 C 
BRANCH  13  14
ATOM     14  N   ARG A   1       7.369  18.456   2.280  0.00  0.00    -0.239 NA
ATOM     15  H   ARG A   1       6.596  18.573   2.966  0.00  0.00    +0.142 HD
ENDBRANCH  13  14
BRANCH  13  16
ATOM     16  C   ARG A   1       7.392  17.246   0.094  0.00  0.00    +0.224 C 
ATOM     17  O   ARG A   1       7.981  16.405  -0.593  0.00  0.00    -0.287 OA
ENDBRANCH  13  16
ENDBRANCH  12  13
ENDBRANCH  11  12
ENDBRANCH  10  11
ENDBRANCH   1  10
TORSDOF 6
REMARK  Name = ../refined-set-2016/1qka/1qka_pocket.pdb
REMARK  281 active torsions:
REMARK  status: ('A' for Active; 'I' for Inactive)
REMARK    1  A    between atoms: _1  and  _3
REMARK    2  A    between atoms: _3  and  _4
REMARK    3  A    between atoms: _3  and  _6
REMARK    4  A    between atoms: _6  and  _7
REMARK    5  A    between atoms: _12  and  _14
REMARK    6  A    between atoms: _14  and  _15
REMARK    7  A    between atoms: _17  and  _19
REMARK    8  A    between atoms: _19  and  _20
REMARK    9  A    between atoms: _19  and  _22
REMARK   10  A    between atoms: _22  and  _23
REMARK   11  A    between atoms: _25  and  _27
REMARK   12  A    between atoms: _27  and  _28
REMARK   13  A    between atoms: _27  and  _30
REMARK   14  A    between atoms: _30  and  _31
REMARK   15  A    between atoms: _31  and  _32
REMARK   16  A    between atoms: _37  and  _39
REMARK   17  A    between atoms: _39  and  _40
REMARK   18  A    between atoms: _39  and  _42
REMARK   19  A    between atoms: _42  and  _43
REMARK   20  A    between atoms: _46  and  _48
REMARK   21  A    between atoms: _48  and  _49
REMARK   22  A    between atoms: _48  and  _51
REMARK   23  A    between atoms: _51  and  _52
REMARK   24  A    between atoms: _52  and  _53
REMARK   25  A    between atoms: _56  and  _58
REMARK   26  A    between atoms: _58  and  _59
REMARK   27  A    between atoms: _61  and  _63
REMARK   28  A    between atoms: _63  and  _64
REMARK   29  A    between atoms: _63  and  _66
REMARK   30  A    between atoms: _70  and  _71
REMARK   31  A    between atoms: _76  and  _78
REMARK   32  A    between atoms: _78  and  _79
REMARK   33  A    between atoms: _78  and  _81
REMARK   34  A    between atoms: _81  and  _82
REMARK   35  A    between atoms: _82  and  _83
REMARK   36  A    between atoms: _86  and  _88
REMARK   37  A    between atoms: _88  and  _89
REMARK   38  A    between atoms: _88  and  _91
REMARK   39  A    between atoms: _91  and  _92
REMARK   40  A    between atoms: _94  and  _96
REMARK   41  A    between atoms: _96  and  _97
REMARK   42  A    between atoms: _96  and  _99
REMARK   43  A    between atoms: _99  and  _100
REMARK   44  A    between atoms: _105  and  _107
REMARK   45  A    between atoms: _107  and  _108
REMARK   46  A    between atoms: _107  and  _110
REMARK   47  A    between atoms: _110  and  _111
REMARK   48  A    between atoms: _111  and  _112
REMARK   49  A    between atoms: _112  and  _113
REMARK   50  A    between atoms: _123  and  _124
REMARK   51  A    between atoms: _129  and  _131
REMARK   52  A    between atoms: _131  and  _132
REMARK   53  A    between atoms: _131  and  _134
REMARK   54  A    between atoms: _134  and  _135
REMARK   55  A    between atoms: _140  and  _141
REMARK   56  A    between atoms: _143  and  _145
REMARK   57  A    between atoms: _145  and  _146
REMARK   58  A    between atoms: _145  and  _148
REMARK   59  A    between atoms: _148  and  _149
REMARK   60  A    between atoms: _154  and  _155
REMARK   61  A    between atoms: _157  and  _159
REMARK   62  A    between atoms: _159  and  _160
REMARK   63  A    between atoms: _159  and  _162
REMARK   64  A    between atoms: _162  and  _163
REMARK   65  A    between atoms: _168  and  _169
REMARK   66  A    between atoms: _171  and  _173
REMARK   67  A    between atoms: _173  and  _174
REMARK   68  A    between atoms: _173  and  _176
REMARK   69  A    between atoms: _179  and  _181
REMARK   70  A    between atoms: _181  and  _182
REMARK   71  A    between atoms: _181  and  _184
REMARK   72  A    between atoms: _184  and  _185
REMARK   73  A    between atoms: _191  and  _192
REMARK   74  A    between atoms: _197  and  _199
REMARK   75  A    between atoms: _199  and  _200
REMARK   76  A    between atoms: _199  and  _202
REMARK   77  A    between atoms: _202  and  _203
REMARK   78  A    between atoms: _205  and  _207
REMARK   79  A    between atoms: _207  and  _208
REMARK   80  A    between atoms: _207  and  _210
REMARK   81  A    between atoms: _210  and  _211
REMARK   82  A    between atoms: _211  and  _212
REMARK   83  A    between atoms: _215  and  _217
REMARK   84  A    between atoms: _217  and  _218
REMARK   85  A    between atoms: _217  and  _220
REMARK   86  A    between atoms: _220  and  _221
REMARK   87  A    between atoms: _226  and  _227
REMARK   88  A    between atoms: _229  and  _231
REMARK   89  A    between atoms: _231  and  _232
REMARK   90  A    between atoms: _231  and  _234
REMARK   91  A    between atoms: _234  and  _235
REMARK   92  A    between atoms: _240  and  _242
REMARK   93  A    between atoms: _242  and  _243
REMARK   94  A    between atoms: _242  and  _245
REMARK   95  A    between atoms: _245  and  _246
REMARK   96  A    between atoms: _251  and  _253
REMARK   97  A    between atoms: _253  and  _254
REMARK   98  A    between atoms: _253  and  _256
REMARK   99  A    between atoms: _256  and  _257
REMARK  100  A    between atoms: _257  and  _258
REMARK  101  A    between atoms: _260  and  _262
REMARK  102  A    between atoms: _262  and  _263
REMARK  103  A    between atoms: _262  and  _265
REMARK  104  A    between atoms: _265  and  _266
REMARK  105  A    between atoms: _271  and  _272
REMARK  106  A    between atoms: _274  and  _276
REMARK  107  A    between atoms: _276  and  _277
REMARK  108  A    between atoms: _276  and  _279
REMARK  109  A    between atoms: _279  and  _280
REMARK  110  A    between atoms: _283  and  _285
REMARK  111  A    between atoms: _285  and  _286
REMARK  112  A    between atoms: _285  and  _288
REMARK  113  A    between atoms: _288  and  _289
REMARK  114  A    between atoms: _289  and  _497
REMARK  115  A    between atoms: _290  and  _292
REMARK  116  A    between atoms: _292  and  _293
REMARK  117  A    between atoms: _292  and  _295
REMARK  118  A    between atoms: _295  and  _296
REMARK  119  A    between atoms: _299  and  _301
REMARK  120  A    between atoms: _301  and  _302
REMARK  121  A    between atoms: _301  and  _304
REMARK  122  A    between atoms: _304  and  _305
REMARK  123  A    between atoms: _310  and  _311
REMARK  124  A    between atoms: _313  and  _315
REMARK  125  A    between atoms: _315  and  _316
REMARK  126  A    between atoms: _315  and  _318
REMARK  127  A    between atoms: _318  and  _319
REMARK  128  A    between atoms: _324  and  _325
REMARK  129  A    between atoms: _327  and  _329
REMARK  130  A    between atoms: _329  and  _330
REMARK  131  A    between atoms: _329  and  _332
REMARK  132  A    between atoms: _332  and  _333
REMARK  133  A    between atoms: _333  and  _334
REMARK  134  A    between atoms: _337  and  _339
REMARK  135  A    between atoms: _339  and  _340
REMARK  136  A    between atoms: _339  and  _342
REMARK  137  A    between atoms: _342  and  _343
REMARK  138  A    between atoms: _348  and  _349
REMARK  139  A    between atoms: _351  and  _353
REMARK  140  A    between atoms: _353  and  _354
REMARK  141  A    between atoms: _353  and  _356
REMARK  142  A    between atoms: _356  and  _357
REMARK  143  A    between atoms: _362  and  _364
REMARK  144  A    between atoms: _364  and  _365
REMARK  145  A    between atoms: _364  and  _367
REMARK  146  A    between atoms: _367  and  _368
REMARK  147  A    between atoms: _371  and  _373
REMARK  148  A    between atoms: _373  and  _374
REMARK  149  A    between atoms: _373  and  _376
REMARK  150  A    between atoms: _376  and  _377
REMARK  151  A    between atoms: _382  and  _384
REMARK  152  A    between atoms: _384  and  _385
REMARK  153  A    between atoms: _384  and  _387
REMARK  154  A    between atoms: _387  and  _388
REMARK  155  A    between atoms: _398  and  _400
REMARK  156  A    between atoms: _400  and  _401
REMARK  157  A    between atoms: _400  and  _403
REMARK  158  A    between atoms: _403  and  _404
REMARK  159  A    between atoms: _410  and  _412
REMARK  160  A    between atoms: _412  and  _413
REMARK  161  A    between atoms: _412  and  _415
REMARK  162  A    between atoms: _415  and  _416
REMARK  163  A    between atoms: _419  and  _421
REMARK  164  A    between atoms: _421  and  _422
REMARK  165  A    between atoms: _421  and  _424
REMARK  166  A    between atoms: _424  and  _425
REMARK  167  A    between atoms: _425  and  _426
REMARK  168  A    between atoms: _426  and  _427
REMARK  169  A    between atoms: _436  and  _438
REMARK  170  A    between atoms: _438  and  _439
REMARK  171  A    between atoms: _438  and  _441
REMARK  172  A    between atoms: _441  and  _442
REMARK  173  A    between atoms: _447  and  _449
REMARK  174  A    between atoms: _449  and  _450
REMARK  175  A    between atoms: _449  and  _452
REMARK  176  A    between atoms: _452  and  _453
REMARK  177  A    between atoms: _453  and  _454
REMARK  178  A    between atoms: _454  and  _455
REMARK  179  A    between atoms: _464  and  _466
REMARK  180  A    between atoms: _466  and  _467
REMARK  181  A    between atoms: _470  and  _472
REMARK  182  A    between atoms: _472  and  _473
REMARK  183  A    between atoms: _475  and  _477
REMARK  184  A    between atoms: _477  and  _478
REMARK  185  A    between atoms: _477  and  _480
REMARK  186  A    between atoms: _480  and  _481
REMARK  187  A    between atoms: _491  and  _493
REMARK  188  A    between atoms: _493  and  _494
REMARK  189  A    between atoms: _493  and  _496
REMARK  190  A    between atoms: _496  and  _497
REMARK  191  A    between atoms: _498  and  _500
REMARK  192  A    between atoms: _500  and  _501
REMARK  193  A    between atoms: _504  and  _506
REMARK  194  A    between atoms: _506  and  _507
REMARK  195  A    between atoms: _506  and  _509
REMARK  196  A    between atoms: _509  and  _510
REMARK  197  A    between atoms: _513  and  _515
REMARK  198  A    between atoms: _515  and  _516
REMARK  199  A    between atoms: _515  and  _518
REMARK  200  A    between atoms: _518  and  _519
REMARK  201  A    between atoms: _524  and  _525
REMARK  202  A    between atoms: _527  and  _529
REMARK  203  A    between atoms: _529  and  _530
REMARK  204  A    between atoms: _529  and  _532
REMARK  205  A    between atoms: _532  and  _533
REMARK  206  A    between atoms: _535  and  _537
REMARK  207  A    between atoms: _537  and  _538
REMARK  208  A    between atoms: _537  and  _540
REMARK  209  A    between atoms: _540  and  _541
REMARK  210  A    between atoms: _547  and  _549
REMARK  211  A    between atoms: _549  and  _550
REMARK  212  A    between atoms: _549  and  _552
REMARK  213  A    between atoms: _552  and  _553
REMARK  214  A    between atoms: _556  and  _558
REMARK  215  A    between atoms: _558  and  _559
REMARK  216  A    between atoms: _558  and  _561
REMARK  217  A    between atoms: _561  and  _562
REMARK  218  A    between atoms: _562  and  _563
REMARK  219  A    between atoms: _565  and  _567
REMARK  220  A    between atoms: _567  and  _568
REMARK  221  A    between atoms: _567  and  _570
REMARK  222  A    between atoms: _570  and  _571
REMARK  223  A    between atoms: _573  and  _575
REMARK  224  A    between atoms: _575  and  _576
REMARK  225  A    between atoms: _575  and  _578
REMARK  226  A    between atoms: _578  and  _579
REMARK  227  A    between atoms: _581  and  _583
REMARK  228  A    between atoms: _583  and  _584
REMARK  229  A    between atoms: _583  and  _586
REMARK  230  A    between atoms: _586  and  _587
REMARK  231  A    between atoms: _592  and  _594
REMARK  232  A    between atoms: _594  and  _595
REMARK  233  A    between atoms: _594  and  _597
REMARK  234  A    between atoms: _597  and  _598
REMARK  235  A    between atoms: _603  and  _605
REMARK  236  A    between atoms: _605  and  _606
REMARK  237  A    between atoms: _605  and  _608
REMARK  238  A    between atoms: _608  and  _609
REMARK  239  A    between atoms: _612  and  _614
REMARK  240  A    between atoms: _614  and  _615
REMARK  241  A    between atoms: _618  and  _620
REMARK  242  A    between atoms: _620  and  _621
REMARK  243  A    between atoms: _620  and  _623
REMARK  244  A    between atoms: _623  and  _624
REMARK  245  A    between atoms: _629  and  _631
REMARK  246  A    between atoms: _631  and  _632
REMARK  247  A    between atoms: _631  and  _634
REMARK  248  A    between atoms: _634  and  _635
REMARK  249  A    between atoms: _640  and  _641
REMARK  250  A    between atoms: _643  and  _645
REMARK  251  A    between atoms: _645  and  _646
REMARK  252  A    between atoms: _645  and  _648
REMARK  253  A    between atoms: _648  and  _649
REMARK  254  A    between atoms: _654  and  _655
REMARK  255  A    between atoms: _657  and  _659
REMARK  256  A    between atoms: _659  and  _660
REMARK  257  A    between atoms: _659  and  _662
REMARK  258  A    between atoms: _665  and  _667
REMARK  259  A    between atoms: _667  and  _668
REMARK  260  A    between atoms: _667  and  _670
REMARK  261  A    between atoms: _670  and  _671
REMARK  262  A    between atoms: _676  and  _678
REMARK  263  A    between atoms: _678  and  _679
REMARK  264  A    between atoms: _682  and  _684
REMARK  265  A    between atoms: _684  and  _685
REMARK  266  A    between atoms: _684  and  _687
REMARK  267  A    between atoms: _687  and  _688
REMARK  268  A    between atoms: _688  and  _689
REMARK  269  A    between atoms: _689  and  _690
REMARK  270  A    between atoms: _699  and  _701
REMARK  271  A    between atoms: _701  and  _702
REMARK  272  A    between atoms: _701  and  _704
REMARK  273  A    between atoms: _704  and  _705
REMARK  274  A    between atoms: _708  and  _710
REMARK  275  A    between atoms: _710  and  _711
REMARK  276  A    between atoms: _710  and  _713
REMARK  277  A    between atoms: _713  and  _714
REMARK  278  A    between atoms: _717  and  _719
REMARK  279  A    between atoms: _719  and  _720
REMARK  280  A    between atoms: _719  and  _722
REMARK  281  A    between atoms: _722  and  _723
REMARK                            x       y       z     vdW  Elec       q    Type
REMARK                         _______ _______ _______ _____ _____    ______ ____
ROOT
ATOM      1  CA  TYR A   2      14.976  21.416  15.023  0.00  0.00    +0.141 C 
ENDROOT
BRANCH   1   4
ATOM      2  C   PRO A   1      14.048  23.328  16.256  0.00  0.00    +0.239 C 
ATOM      3  O   PRO A   1      13.831  22.624  17.260  0.00  0.00    -0.274 OA
ATOM      4  N   TYR A   2      14.589  22.802  15.149  0.00  0.00    -0.298 N 
ATOM      5  H   TYR A   2      14.739  23.428  14.332  0.00  0.00    +0.150 HD
BRANCH   2   7
ATOM      6  N   PRO A   1      14.428  25.511  15.191  0.00  0.00    -0.210 NA
ATOM      7  CA  PRO A   1      13.687  24.813  16.237  0.00  0.00    +0.149 C 
ATOM      8  CB  PRO A   1      12.216  25.042  15.861  0.00  0.00    +0.028 C 
ATOM      9  CG  PRO A   1      12.229  25.256  14.380  0.00  0.00    +0.021 C 
ATOM     10  CD  PRO A   1      13.549  25.971  14.105  0.00  0.00    +0.089 C 
ENDBRANCH   2   7
ENDBRANCH   1   4
BRANCH   1  11
ATOM     11  C   TYR A   2      16.495  21.228  15.031  0.00  0.00    +0.227 C 
ATOM     12  O   TYR A   2      16.999  20.167  14.694  0.00  0.00    -0.286 OA
ENDBRANCH   1  11
BRANCH   1  13
ATOM     13  CB  TYR A   2      14.362  20.743  13.804  0.00  0.00    +0.054 C 
BRANCH  13  14
ATOM     14  CG  TYR A   2      13.039  20.041  14.051  0.00  0.00    -0.020 A 
ATOM     15  CD2 TYR A   2      13.044  18.848  14.765  0.00  0.00    -0.001 A 
ATOM     16  CE2 TYR A   2      11.870  18.162  15.023  0.00  0.00    +0.036 A 
ATOM     17  CZ  TYR A   2      10.669  18.654  14.552  0.00  0.00    +0.134 A 
ATOM     18  CE1 TYR A   2      10.628  19.855  13.872  0.00  0.00    +0.036 A 
ATOM     19  CD1 TYR A   2      11.811  20.543  13.618  0.00  0.00    -0.001 A 
BRANCH  17  20
ATOM     20  OH  TYR A   2       9.527  17.937  14.801  0.00  0.00    -0.506 OA
ATOM     21  HH  TYR A   2       9.758  17.111  15.296  0.00  0.00    +0.292 HD
ENDBRANCH  17  20
ENDBRANCH  13  14
ENDBRANCH   1  13
TORSDOF 6
REMARK  Name = ../refined-set-2016/1qka/1qka_pocket.pdb
REMARK  281 active torsions:
REMARK  status: ('A' for Active; 'I' for Inactive)
REMARK    1  A    between atoms: _1  and  _3
REMARK    2  A    between atoms: _3  and  _4
REMARK    3  A    between atoms: _3  and  _6
REMARK    4  A    between atoms: _6  and  _7
REMARK    5  A    between atoms: _12  and  _14
REMARK    6  A    between atoms: _14  and  _15
REMARK    7  A    between atoms: _17  and  _19
REMARK    8  A    between atoms: _19  and  _20
REMARK    9  A    between atoms: _19  and  _22
REMARK   10  A    between atoms: _22  and  _23
REMARK   11  A    between atoms: _25  and  _27
REMARK   12  A    between atoms: _27  and  _28
REMARK   13  A    between atoms: _27  and  _30
REMARK   14  A    between atoms: _30  and  _31
REMARK   15  A    between atoms: _31  and  _32
REMARK   16  A    between atoms: _37  and  _39
REMARK   17  A    between atoms: _39  and  _40
REMARK   18  A    between atoms: _39  and  _42
REMARK   19  A    between atoms: _42  and  _43
REMARK   20  A    between atoms: _46  and  _48
REMARK   21  A    between atoms: _48  and  _49
REMARK   22  A    between atoms: _48  and  _51
REMARK   23  A    between atoms: _51  and  _52
REMARK   24  A    between atoms: _52  and  _53
REMARK   25  A    between atoms: _56  and  _58
REMARK   26  A    between atoms: _58  and  _59
REMARK   27  A    between atoms: _61  and  _63
REMARK   28  A    between atoms: _63  and  _64
REMARK   29  A    between atoms: _63  and  _66
REMARK   30  A    between atoms: _70  and  _71
REMARK   31  A    between atoms: _76  and  _78
REMARK   32  A    between atoms: _78  and  _79
REMARK   33  A    between atoms: _78  and  _81
REMARK   34  A    between atoms: _81  and  _82
REMARK   35  A    between atoms: _82  and  _83
REMARK   36  A    between atoms: _86  and  _88
REMARK   37  A    between atoms: _88  and  _89
REMARK   38  A    between atoms: _88  and  _91
REMARK   39  A    between atoms: _91  and  _92
REMARK   40  A    between atoms: _94  and  _96
REMARK   41  A    between atoms: _96  and  _97
REMARK   42  A    between atoms: _96  and  _99
REMARK   43  A    between atoms: _99  and  _100
REMARK   44  A    between atoms: _105  and  _107
REMARK   45  A    between atoms: _107  and  _108
REMARK   46  A    between atoms: _107  and  _110
REMARK   47  A    between atoms: _110  and  _111
REMARK   48  A    between atoms: _111  and  _112
REMARK   49  A    between atoms: _112  and  _113
REMARK   50  A    between atoms: _123  and  _124
REMARK   51  A    between atoms: _129  and  _131
REMARK   52  A    between atoms: _131  and  _132
REMARK   53  A    between atoms: _131  and  _134
REMARK   54  A    between atoms: _134  and  _135
REMARK   55  A    between atoms: _140  and  _141
REMARK   56  A    between atoms: _143  and  _145
REMARK   57  A    between atoms: _145  and  _146
REMARK   58  A    between atoms: _145  and  _148
REMARK   59  A    between atoms: _148  and  _149
REMARK   60  A    between atoms: _154  and  _155
REMARK   61  A    between atoms: _157  and  _159
REMARK   62  A    between atoms: _159  and  _160
REMARK   63  A    between atoms: _159  and  _162
REMARK   64  A    between atoms: _162  and  _163
REMARK   65  A    between atoms: _168  and  _169
REMARK   66  A    between atoms: _171  and  _173
REMARK   67  A    between atoms: _173  and  _174
REMARK   68  A    between atoms: _173  and  _176
REMARK   69  A    between atoms: _179  and  _181
REMARK   70  A    between atoms: _181  and  _182
REMARK   71  A    between atoms: _181  and  _184
REMARK   72  A    between atoms: _184  and  _185
REMARK   73  A    between atoms: _191  and  _192
REMARK   74  A    between atoms: _197  and  _199
REMARK   75  A    between atoms: _199  and  _200
REMARK   76  A    between atoms: _199  and  _202
REMARK   77  A    between atoms: _202  and  _203
REMARK   78  A    between atoms: _205  and  _207
REMARK   79  A    between atoms: _207  and  _208
REMARK   80  A    between atoms: _207  and  _210
REMARK   81  A    between atoms: _210  and  _211
REMARK   82  A    between atoms: _211  and  _212
REMARK   83  A    between atoms: _215  and  _217
REMARK   84  A    between atoms: _217  and  _218
REMARK   85  A    between atoms: _217  and  _220
REMARK   86  A    between atoms: _220  and  _221
REMARK   87  A    between atoms: _226  and  _227
REMARK   88  A    between atoms: _229  and  _231
REMARK   89  A    between atoms: _231  and  _232
REMARK   90  A    between atoms: _231  and  _234
REMARK   91  A    between atoms: _234  and  _235
REMARK   92  A    between atoms: _240  and  _242
REMARK   93  A    between atoms: _242  and  _243
REMARK   94  A    between atoms: _242  and  _245
REMARK   95  A    between atoms: _245  and  _246
REMARK   96  A    between atoms: _251  and  _253
REMARK   97  A    between atoms: _253  and  _254
REMARK   98  A    between atoms: _253  and  _256
REMARK   99  A    between atoms: _256  and  _257
REMARK  100  A    between atoms: _257  and  _258
REMARK  101  A    between atoms: _260  and  _262
REMARK  102  A    between atoms: _262  and  _263
REMARK  103  A    between atoms: _262  and  _265
REMARK  104  A    between atoms: _265  and  _266
REMARK  105  A    between atoms: _271  and  _272
REMARK  106  A    between atoms: _274  and  _276
REMARK  107  A    between atoms: _276  and  _277
REMARK  108  A    between atoms: _276  and  _279
REMARK  109  A    between atoms: _279  and  _280
REMARK  110  A    between atoms: _283  and  _285
REMARK  111  A    between atoms: _285  and  _286
REMARK  112  A    between atoms: _285  and  _288
REMARK  113  A    between atoms: _288  and  _289
REMARK  114  A    between atoms: _289  and  _497
REMARK  115  A    between atoms: _290  and  _292
REMARK  116  A    between atoms: _292  and  _293
REMARK  117  A    between atoms: _292  and  _295
REMARK  118  A    between atoms: _295  and  _296
REMARK  119  A    between atoms: _299  and  _301
REMARK  120  A    between atoms: _301  and  _302
REMARK  121  A    between atoms: _301  and  _304
REMARK  122  A    between atoms: _304  and  _305
REMARK  123  A    between atoms: _310  and  _311
REMARK  124  A    between atoms: _313  and  _315
REMARK  125  A    between atoms: _315  and  _316
REMARK  126  A    between atoms: _315  and  _318
REMARK  127  A    between atoms: _318  and  _319
REMARK  128  A    between atoms: _324  and  _325
REMARK  129  A    between atoms: _327  and  _329
REMARK  130  A    between atoms: _329  and  _330
REMARK  131  A    between atoms: _329  and  _332
REMARK  132  A    between atoms: _332  and  _333
REMARK  133  A    between atoms: _333  and  _334
REMARK  134  A    between atoms: _337  and  _339
REMARK  135  A    between atoms: _339  and  _340
REMARK  136  A    between atoms: _339  and  _342
REMARK  137  A    between atoms: _342  and  _343
REMARK  138  A    between atoms: _348  and  _349
REMARK  139  A    between atoms: _351  and  _353
REMARK  140  A    between atoms: _353  and  _354
REMARK  141  A    between atoms: _353  and  _356
REMARK  142  A    between atoms: _356  and  _357
REMARK  143  A    between atoms: _362  and  _364
REMARK  144  A    between atoms: _364  and  _365
REMARK  145  A    between atoms: _364  and  _367
REMARK  146  A    between atoms: _367  and  _368
REMARK  147  A    between atoms: _371  and  _373
REMARK  148  A    between atoms: _373  and  _374
REMARK  149  A    between atoms: _373  and  _376
REMARK  150  A    between atoms: _376  and  _377
REMARK  151  A    between atoms: _382  and  _384
REMARK  152  A    between atoms: _384  and  _385
REMARK  153  A    between atoms: _384  and  _387
REMARK  154  A    between atoms: _387  and  _388
REMARK  155  A    between atoms: _398  and  _400
REMARK  156  A    between atoms: _400  and  _401
REMARK  157  A    between atoms: _400  and  _403
REMARK  158  A    between atoms: _403  and  _404
REMARK  159  A    between atoms: _410  and  _412
REMARK  160  A    between atoms: _412  and  _413
REMARK  161  A    between atoms: _412  and  _415
REMARK  162  A    between atoms: _415  and  _416
REMARK  163  A    between atoms: _419  and  _421
REMARK  164  A    between atoms: _421  and  _422
REMARK  165  A    between atoms: _421  and  _424
REMARK  166  A    between atoms: _424  and  _425
REMARK  167  A    between atoms: _425  and  _426
REMARK  168  A    between atoms: _426  and  _427
REMARK  169  A    between atoms: _436  and  _438
REMARK  170  A    between atoms: _438  and  _439
REMARK  171  A    between atoms: _438  and  _441
REMARK  172  A    between atoms: _441  and  _442
REMARK  173  A    between atoms: _447  and  _449
REMARK  174  A    between atoms: _449  and  _450
REMARK  175  A    between atoms: _449  and  _452
REMARK  176  A    between atoms: _452  and  _453
REMARK  177  A    between atoms: _453  and  _454
REMARK  178  A    between atoms: _454  and  _455
REMARK  179  A    between atoms: _464  and  _466
REMARK  180  A    between atoms: _466  and  _467
REMARK  181  A    between atoms: _470  and  _472
REMARK  182  A    between atoms: _472  and  _473
REMARK  183  A    between atoms: _475  and  _477
REMARK  184  A    between atoms: _477  and  _478
REMARK  185  A    between atoms: _477  and  _480
REMARK  186  A    between atoms: _480  and  _481
REMARK  187  A    between atoms: _491  and  _493
REMARK  188  A    between atoms: _493  and  _494
REMARK  189  A    between atoms: _493  and  _496
REMARK  190  A    between atoms: _496  and  _497
REMARK  191  A    between atoms: _498  and  _500
REMARK  192  A    between atoms: _500  and  _501
REMARK  193  A    between atoms: _504  and  _506
REMARK  194  A    between atoms: _506  and  _507
REMARK  195  A    between atoms: _506  and  _509
REMARK  196  A    between atoms: _509  and  _510
REMARK  197  A    between atoms: _513  and  _515
REMARK  198  A    between atoms: _515  and  _516
REMARK  199  A    between atoms: _515  and  _518
REMARK  200  A    between atoms: _518  and  _519
REMARK  201  A    between atoms: _524  and  _525
REMARK  202  A    between atoms: _527  and  _529
REMARK  203  A    between atoms: _529  and  _530
REMARK  204  A    between atoms: _529  and  _532
REMARK  205  A    between atoms: _532  and  _533
REMARK  206  A    between atoms: _535  and  _537
REMARK  207  A    between atoms: _537  and  _538
REMARK  208  A    between atoms: _537  and  _540
REMARK  209  A    between atoms: _540  and  _541
REMARK  210  A    between atoms: _547  and  _549
REMARK  211  A    between atoms: _549  and  _550
REMARK  212  A    between atoms: _549  and  _552
REMARK  213  A    between atoms: _552  and  _553
REMARK  214  A    between atoms: _556  and  _558
REMARK  215  A    between atoms: _558  and  _559
REMARK  216  A    between atoms: _558  and  _561
REMARK  217  A    between atoms: _561  and  _562
REMARK  218  A    between atoms: _562  and  _563
REMARK  219  A    between atoms: _565  and  _567
REMARK  220  A    between atoms: _567  and  _568
REMARK  221  A    between atoms: _567  and  _570
REMARK  222  A    between atoms: _570  and  _571
REMARK  223  A    between atoms: _573  and  _575
REMARK  224  A    between atoms: _575  and  _576
REMARK  225  A    between atoms: _575  and  _578
REMARK  226  A    between atoms: _578  and  _579
REMARK  227  A    between atoms: _581  and  _583
REMARK  228  A    between atoms: _583  and  _584
REMARK  229  A    between atoms: _583  and  _586
REMARK  230  A    between atoms: _586  and  _587
REMARK  231  A    between atoms: _592  and  _594
REMARK  232  A    between atoms: _594  and  _595
REMARK  233  A    between atoms: _594  and  _597
REMARK  234  A    between atoms: _597  and  _598
REMARK  235  A    between atoms: _603  and  _605
REMARK  236  A    between atoms: _605  and  _606
REMARK  237  A    between atoms: _605  and  _608
REMARK  238  A    between atoms: _608  and  _609
REMARK  239  A    between atoms: _612  and  _614
REMARK  240  A    between atoms: _614  and  _615
REMARK  241  A    between atoms: _618  and  _620
REMARK  242  A    between atoms: _620  and  _621
REMARK  243  A    between atoms: _620  and  _623
REMARK  244  A    between atoms: _623  and  _624
REMARK  245  A    between atoms: _629  and  _631
REMARK  246  A    between atoms: _631  and  _632
REMARK  247  A    between atoms: _631  and  _634
REMARK  248  A    between atoms: _634  and  _635
REMARK  249  A    between atoms: _640  and  _641
REMARK  250  A    between atoms: _643  and  _645
REMARK  251  A    between atoms: _645  and  _646
REMARK  252  A    between atoms: _645  and  _648
REMARK  253  A    between atoms: _648  and  _649
REMARK  254  A    between atoms: _654  and  _655
REMARK  255  A    between atoms: _657  and  _659
REMARK  256  A    between atoms: _659  and  _660
REMARK  257  A    between atoms: _659  and  _662
REMARK  258  A    between atoms: _665  and  _667
REMARK  259  A    between atoms: _667  and  _668
REMARK  260  A    between atoms: _667  and  _670
REMARK  261  A    between atoms: _670  and  _671
REMARK  262  A    between atoms: _676  and  _678
REMARK  263  A    between atoms: _678  and  _679
REMARK  264  A    between atoms: _682  and  _684
REMARK  265  A    between atoms: _684  and  _685
REMARK  266  A    between atoms: _684  and  _687
REMARK  267  A    between atoms: _687  and  _688
REMARK  268  A    between atoms: _688  and  _689
REMARK  269  A    between atoms: _689  and  _690
REMARK  270  A    between atoms: _699  and  _701
REMARK  271  A    between atoms: _701  and  _702
REMARK  272  A    between atoms: _701  and  _704
REMARK  273  A    between atoms: _704  and  _705
REMARK  274  A    between atoms: _708  and  _710
REMARK  275  A    between atoms: _710  and  _711
REMARK  276  A    between atoms: _710  and  _713
REMARK  277  A    between atoms: _713  and  _714
REMARK  278  A    between atoms: _717  and  _719
REMARK  279  A    between atoms: _719  and  _720
REMARK  280  A    between atoms: _719  and  _722
REMARK  281  A    between atoms: _722  and  _723
REMARK                            x       y       z     vdW  Elec       q    Type
REMARK                         _______ _______ _______ _____ _____    ______ ____
ROOT
ATOM      1  CG  TYR A   1      15.723  15.859  13.751  0.00  0.00    -0.020 A 
ATOM      2  CD2 TYR A   1      14.585  15.426  14.436  0.00  0.00    -0.001 A 
ATOM      3  CE2 TYR A   1      13.817  14.385  13.971  0.00  0.00    +0.036 A 
ATOM      4  CZ  TYR A   1      14.170  13.754  12.780  0.00  0.00    +0.134 A 
ATOM      5  CE1 TYR A   1      15.282  14.156  12.093  0.00  0.00    +0.036 A 
ATOM      6  CD1 TYR A   1      16.056  15.207  12.581  0.00  0.00    -0.001 A 
ENDROOT
BRANCH   4   7
ATOM      7  OH  TYR A   1      13.374  12.742  12.288  0.00  0.00    -0.506 OA
ATOM      8  HH  TYR A   1      13.910  11.914  12.201  0.00  0.00    +0.292 HD
ENDBRANCH   4   7
BRANCH   1   9
ATOM      9  CB  TYR A   1      16.558  17.016  14.289  0.00  0.00    +0.051 C 
BRANCH   9  10
ATOM     10  CA  TYR A   1      17.211  16.680  15.630  0.00  0.00    +0.137 C 
BRANCH  10  11
ATOM     11  N   TYR A   1      17.446  17.916  16.396  0.00  0.00    -0.239 NA
ATOM     12  H   TYR A   1      17.155  18.837  16.010  0.00  0.00    +0.142 HD
ENDBRANCH  10  11
BRANCH  10  13
ATOM     13  C   TYR A   1      18.559  15.989  15.396  0.00  0.00    +0.224 C 
ATOM     14  O   TYR A   1      18.610  14.758  15.413  0.00  0.00    -0.287 OA
ENDBRANCH  10  13
ENDBRANCH   9  10
ENDBRANCH   1   9
TORSDOF 5
REMARK  Name = ../refined-set-2016/1qka/1qka_pocket.pdb
REMARK  281 active torsions:
REMARK  status: ('A' for Active; 'I' for Inactive)
REMARK    1  A    between atoms: _1  and  _3
REMARK    2  A    between atoms: _3  and  _4
REMARK    3  A    between atoms: _3  and  _6
REMARK    4  A    between atoms: _6  and  _7
REMARK    5  A    between atoms: _12  and  _14
REMARK    6  A    between atoms: _14  and  _15
REMARK    7  A    between atoms: _17  and  _19
REMARK    8  A    between atoms: _19  and  _20
REMARK    9  A    between atoms: _19  and  _22
REMARK   10  A    between atoms: _22  and  _23
REMARK   11  A    between atoms: _25  and  _27
REMARK   12  A    between atoms: _27  and  _28
REMARK   13  A    between atoms: _27  and  _30
REMARK   14  A    between atoms: _30  and  _31
REMARK   15  A    between atoms: _31  and  _32
REMARK   16  A    between atoms: _37  and  _39
REMARK   17  A    between atoms: _39  and  _40
REMARK   18  A    between atoms: _39  and  _42
REMARK   19  A    between atoms: _42  and  _43
REMARK   20  A    between atoms: _46  and  _48
REMARK   21  A    between atoms: _48  and  _49
REMARK   22  A    between atoms: _48  and  _51
REMARK   23  A    between atoms: _51  and  _52
REMARK   24  A    between atoms: _52  and  _53
REMARK   25  A    between atoms: _56  and  _58
REMARK   26  A    between atoms: _58  and  _59
REMARK   27  A    between atoms: _61  and  _63
REMARK   28  A    between atoms: _63  and  _64
REMARK   29  A    between atoms: _63  and  _66
REMARK   30  A    between atoms: _70  and  _71
REMARK   31  A    between atoms: _76  and  _78
REMARK   32  A    between atoms: _78  and  _79
REMARK   33  A    between atoms: _78  and  _81
REMARK   34  A    between atoms: _81  and  _82
REMARK   35  A    between atoms: _82  and  _83
REMARK   36  A    between atoms: _86  and  _88
REMARK   37  A    between atoms: _88  and  _89
REMARK   38  A    between atoms: _88  and  _91
REMARK   39  A    between atoms: _91  and  _92
REMARK   40  A    between atoms: _94  and  _96
REMARK   41  A    between atoms: _96  and  _97
REMARK   42  A    between atoms: _96  and  _99
REMARK   43  A    between atoms: _99  and  _100
REMARK   44  A    between atoms: _105  and  _107
REMARK   45  A    between atoms: _107  and  _108
REMARK   46  A    between atoms: _107  and  _110
REMARK   47  A    between atoms: _110  and  _111
REMARK   48  A    between atoms: _111  and  _112
REMARK   49  A    between atoms: _112  and  _113
REMARK   50  A    between atoms: _123  and  _124
REMARK   51  A    between atoms: _129  and  _131
REMARK   52  A    between atoms: _131  and  _132
REMARK   53  A    between atoms: _131  and  _134
REMARK   54  A    between atoms: _134  and  _135
REMARK   55  A    between atoms: _140  and  _141
REMARK   56  A    between atoms: _143  and  _145
REMARK   57  A    between atoms: _145  and  _146
REMARK   58  A    between atoms: _145  and  _148
REMARK   59  A    between atoms: _148  and  _149
REMARK   60  A    between atoms: _154  and  _155
REMARK   61  A    between atoms: _157  and  _159
REMARK   62  A    between atoms: _159  and  _160
REMARK   63  A    between atoms: _159  and  _162
REMARK   64  A    between atoms: _162  and  _163
REMARK   65  A    between atoms: _168  and  _169
REMARK   66  A    between atoms: _171  and  _173
REMARK   67  A    between atoms: _173  and  _174
REMARK   68  A    between atoms: _173  and  _176
REMARK   69  A    between atoms: _179  and  _181
REMARK   70  A    between atoms: _181  and  _182
REMARK   71  A    between atoms: _181  and  _184
REMARK   72  A    between atoms: _184  and  _185
REMARK   73  A    between atoms: _191  and  _192
REMARK   74  A    between atoms: _197  and  _199
REMARK   75  A    between atoms: _199  and  _200
REMARK   76  A    between atoms: _199  and  _202
REMARK   77  A    between atoms: _202  and  _203
REMARK   78  A    between atoms: _205  and  _207
REMARK   79  A    between atoms: _207  and  _208
REMARK   80  A    between atoms: _207  and  _210
REMARK   81  A    between atoms: _210  and  _211
REMARK   82  A    between atoms: _211  and  _212
REMARK   83  A    between atoms: _215  and  _217
REMARK   84  A    between atoms: _217  and  _218
REMARK   85  A    between atoms: _217  and  _220
REMARK   86  A    between atoms: _220  and  _221
REMARK   87  A    between atoms: _226  and  _227
REMARK   88  A    between atoms: _229  and  _231
REMARK   89  A    between atoms: _231  and  _232
REMARK   90  A    between atoms: _231  and  _234
REMARK   91  A    between atoms: _234  and  _235
REMARK   92  A    between atoms: _240  and  _242
REMARK   93  A    between atoms: _242  and  _243
REMARK   94  A    between atoms: _242  and  _245
REMARK   95  A    between atoms: _245  and  _246
REMARK   96  A    between atoms: _251  and  _253
REMARK   97  A    between atoms: _253  and  _254
REMARK   98  A    between atoms: _253  and  _256
REMARK   99  A    between atoms: _256  and  _257
REMARK  100  A    between atoms: _257  and  _258
REMARK  101  A    between atoms: _260  and  _262
REMARK  102  A    between atoms: _262  and  _263
REMARK  103  A    between atoms: _262  and  _265
REMARK  104  A    between atoms: _265  and  _266
REMARK  105  A    between atoms: _271  and  _272
REMARK  106  A    between atoms: _274  and  _276
REMARK  107  A    between atoms: _276  and  _277
REMARK  108  A    between atoms: _276  and  _279
REMARK  109  A    between atoms: _279  and  _280
REMARK  110  A    between atoms: _283  and  _285
REMARK  111  A    between atoms: _285  and  _286
REMARK  112  A    between atoms: _285  and  _288
REMARK  113  A    between atoms: _288  and  _289
REMARK  114  A    between atoms: _289  and  _497
REMARK  115  A    between atoms: _290  and  _292
REMARK  116  A    between atoms: _292  and  _293
REMARK  117  A    between atoms: _292  and  _295
REMARK  118  A    between atoms: _295  and  _296
REMARK  119  A    between atoms: _299  and  _301
REMARK  120  A    between atoms: _301  and  _302
REMARK  121  A    between atoms: _301  and  _304
REMARK  122  A    between atoms: _304  and  _305
REMARK  123  A    between atoms: _310  and  _311
REMARK  124  A    between atoms: _313  and  _315
REMARK  125  A    between atoms: _315  and  _316
REMARK  126  A    between atoms: _315  and  _318
REMARK  127  A    between atoms: _318  and  _319
REMARK  128  A    between atoms: _324  and  _325
REMARK  129  A    between atoms: _327  and  _329
REMARK  130  A    between atoms: _329  and  _330
REMARK  131  A    between atoms: _329  and  _332
REMARK  132  A    between atoms: _332  and  _333
REMARK  133  A    between atoms: _333  and  _334
REMARK  134  A    between atoms: _337  and  _339
REMARK  135  A    between atoms: _339  and  _340
REMARK  136  A    between atoms: _339  and  _342
REMARK  137  A    between atoms: _342  and  _343
REMARK  138  A    between atoms: _348  and  _349
REMARK  139  A    between atoms: _351  and  _353
REMARK  140  A    between atoms: _353  and  _354
REMARK  141  A    between atoms: _353  and  _356
REMARK  142  A    between atoms: _356  and  _357
REMARK  143  A    between atoms: _362  and  _364
REMARK  144  A    between atoms: _364  and  _365
REMARK  145  A    between atoms: _364  and  _367
REMARK  146  A    between atoms: _367  and  _368
REMARK  147  A    between atoms: _371  and  _373
REMARK  148  A    between atoms: _373  and  _374
REMARK  149  A    between atoms: _373  and  _376
REMARK  150  A    between atoms: _376  and  _377
REMARK  151  A    between atoms: _382  and  _384
REMARK  152  A    between atoms: _384  and  _385
REMARK  153  A    between atoms: _384  and  _387
REMARK  154  A    between atoms: _387  and  _388
REMARK  155  A    between atoms: _398  and  _400
REMARK  156  A    between atoms: _400  and  _401
REMARK  157  A    between atoms: _400  and  _403
REMARK  158  A    between atoms: _403  and  _404
REMARK  159  A    between atoms: _410  and  _412
REMARK  160  A    between atoms: _412  and  _413
REMARK  161  A    between atoms: _412  and  _415
REMARK  162  A    between atoms: _415  and  _416
REMARK  163  A    between atoms: _419  and  _421
REMARK  164  A    between atoms: _421  and  _422
REMARK  165  A    between atoms: _421  and  _424
REMARK  166  A    between atoms: _424  and  _425
REMARK  167  A    between atoms: _425  and  _426
REMARK  168  A    between atoms: _426  and  _427
REMARK  169  A    between atoms: _436  and  _438
REMARK  170  A    between atoms: _438  and  _439
REMARK  171  A    between atoms: _438  and  _441
REMARK  172  A    between atoms: _441  and  _442
REMARK  173  A    between atoms: _447  and  _449
REMARK  174  A    between atoms: _449  and  _450
REMARK  175  A    between atoms: _449  and  _452
REMARK  176  A    between atoms: _452  and  _453
REMARK  177  A    between atoms: _453  and  _454
REMARK  178  A    between atoms: _454  and  _455
REMARK  179  A    between atoms: _464  and  _466
REMARK  180  A    between atoms: _466  and  _467
REMARK  181  A    between atoms: _470  and  _472
REMARK  182  A    between atoms: _472  and  _473
REMARK  183  A    between atoms: _475  and  _477
REMARK  184  A    between atoms: _477  and  _478
REMARK  185  A    between atoms: _477  and  _480
REMARK  186  A    between atoms: _480  and  _481
REMARK  187  A    between atoms: _491  and  _493
REMARK  188  A    between atoms: _493  and  _494
REMARK  189  A    between atoms: _493  and  _496
REMARK  190  A    between atoms: _496  and  _497
REMARK  191  A    between atoms: _498  and  _500
REMARK  192  A    between atoms: _500  and  _501
REMARK  193  A    between atoms: _504  and  _506
REMARK  194  A    between atoms: _506  and  _507
REMARK  195  A    between atoms: _506  and  _509
REMARK  196  A    between atoms: _509  and  _510
REMARK  197  A    between atoms: _513  and  _515
REMARK  198  A    between atoms: _515  and  _516
REMARK  199  A    between atoms: _515  and  _518
REMARK  200  A    between atoms: _518  and  _519
REMARK  201  A    between atoms: _524  and  _525
REMARK  202  A    between atoms: _527  and  _529
REMARK  203  A    between atoms: _529  and  _530
REMARK  204  A    between atoms: _529  and  _532
REMARK  205  A    between atoms: _532  and  _533
REMARK  206  A    between atoms: _535  and  _537
REMARK  207  A    between atoms: _537  and  _538
REMARK  208  A    between atoms: _537  and  _540
REMARK  209  A    between atoms: _540  and  _541
REMARK  210  A    between atoms: _547  and  _549
REMARK  211  A    between atoms: _549  and  _550
REMARK  212  A    between atoms: _549  and  _552
REMARK  213  A    between atoms: _552  and  _553
REMARK  214  A    between atoms: _556  and  _558
REMARK  215  A    between atoms: _558  and  _559
REMARK  216  A    between atoms: _558  and  _561
REMARK  217  A    between atoms: _561  and  _562
REMARK  218  A    between atoms: _562  and  _563
REMARK  219  A    between atoms: _565  and  _567
REMARK  220  A    between atoms: _567  and  _568
REMARK  221  A    between atoms: _567  and  _570
REMARK  222  A    between atoms: _570  and  _571
REMARK  223  A    between atoms: _573  and  _575
REMARK  224  A    between atoms: _575  and  _576
REMARK  225  A    between atoms: _575  and  _578
REMARK  226  A    between atoms: _578  and  _579
REMARK  227  A    between atoms: _581  and  _583
REMARK  228  A    between atoms: _583  and  _584
REMARK  229  A    between atoms: _583  and  _586
REMARK  230  A    between atoms: _586  and  _587
REMARK  231  A    between atoms: _592  and  _594
REMARK  232  A    between atoms: _594  and  _595
REMARK  233  A    between atoms: _594  and  _597
REMARK  234  A    between atoms: _597  and  _598
REMARK  235  A    between atoms: _603  and  _605
REMARK  236  A    between atoms: _605  and  _606
REMARK  237  A    between atoms: _605  and  _608
REMARK  238  A    between atoms: _608  and  _609
REMARK  239  A    between atoms: _612  and  _614
REMARK  240  A    between atoms: _614  and  _615
REMARK  241  A    between atoms: _618  and  _620
REMARK  242  A    between atoms: _620  and  _621
REMARK  243  A    between atoms: _620  and  _623
REMARK  244  A    between atoms: _623  and  _624
REMARK  245  A    between atoms: _629  and  _631
REMARK  246  A    between atoms: _631  and  _632
REMARK  247  A    between atoms: _631  and  _634
REMARK  248  A    between atoms: _634  and  _635
REMARK  249  A    between atoms: _640  and  _641
REMARK  250  A    between atoms: _643  and  _645
REMARK  251  A    between atoms: _645  and  _646
REMARK  252  A    between atoms: _645  and  _648
REMARK  253  A    between atoms: _648  and  _649
REMARK  254  A    between atoms: _654  and  _655
REMARK  255  A    between atoms: _657  and  _659
REMARK  256  A    between atoms: _659  and  _660
REMARK  257  A    between atoms: _659  and  _662
REMARK  258  A    between atoms: _665  and  _667
REMARK  259  A    between atoms: _667  and  _668
REMARK  260  A    between atoms: _667  and  _670
REMARK  261  A    between atoms: _670  and  _671
REMARK  262  A    between atoms: _676  and  _678
REMARK  263  A    between atoms: _678  and  _679
REMARK  264  A    between atoms: _682  and  _684
REMARK  265  A    between atoms: _684  and  _685
REMARK  266  A    between atoms: _684  and  _687
REMARK  267  A    between atoms: _687  and  _688
REMARK  268  A    between atoms: _688  and  _689
REMARK  269  A    between atoms: _689  and  _690
REMARK  270  A    between atoms: _699  and  _701
REMARK  271  A    between atoms: _701  and  _702
REMARK  272  A    between atoms: _701  and  _704
REMARK  273  A    between atoms: _704  and  _705
REMARK  274  A    between atoms: _708  and  _710
REMARK  275  A    between atoms: _710  and  _711
REMARK  276  A    between atoms: _710  and  _713
REMARK  277  A    between atoms: _713  and  _714
REMARK  278  A    between atoms: _717  and  _719
REMARK  279  A    between atoms: _719  and  _720
REMARK  280  A    between atoms: _719  and  _722
REMARK  281  A    between atoms: _722  and  _723
REMARK                            x       y       z     vdW  Elec       q    Type
REMARK                         _______ _______ _______ _____ _____    ______ ____
ROOT
ATOM      1  CG  TYR A   1      16.324  14.186  18.618  0.00  0.00    -0.020 A 
ATOM      2  CD2 TYR A   1      16.745  14.814  19.761  0.00  0.00    -0.001 A 
ATOM      3  CE2 TYR A   1      16.040  15.875  20.321  0.00  0.00    +0.036 A 
ATOM      4  CZ  TYR A   1      14.879  16.287  19.703  0.00  0.00    +0.134 A 
ATOM      5  CE1 TYR A   1      14.426  15.672  18.559  0.00  0.00    +0.036 A 
ATOM      6  CD1 TYR A   1      15.133  14.619  18.008  0.00  0.00    -0.001 A 
ENDROOT
BRANCH   4   7
ATOM      7  OH  TYR A   1      14.185  17.351  20.252  0.00  0.00    -0.506 OA
ATOM      8  HH  TYR A   1      14.137  18.088  19.593  0.00  0.00    +0.292 HD
ENDBRANCH   4   7
BRANCH   1   9
ATOM      9  CB  TYR A   1      17.086  13.051  17.955  0.00  0.00    +0.051 C 
BRANCH   9  10
ATOM     10  CA  TYR A   1      18.500  12.840  18.512  0.00  0.00    +0.137 C 
BRANCH  10  11
ATOM     11  N   TYR A   1      19.332  14.052  18.423  0.00  0.00    -0.239 NA
ATOM     12  H   TYR A   1      18.955  14.904  17.961  0.00  0.00    +0.142 HD
ENDBRANCH  10  11
BRANCH  10  13
ATOM     13  C   TYR A   1      19.113  11.675  17.733  0.00  0.00    +0.224 C 
ATOM     14  O   TYR A   1      18.924  10.517  18.072  0.00  0.00    -0.287 OA
ENDBRANCH  10  13
ENDBRANCH   9  10
ENDBRANCH   1   9
TORSDOF 5
REMARK  Name = ../refined-set-2016/1qka/1qka_pocket.pdb
REMARK  281 active torsions:
REMARK  status: ('A' for Active; 'I' for Inactive)
REMARK    1  A    between atoms: _1  and  _3
REMARK    2  A    between atoms: _3  and  _4
REMARK    3  A    between atoms: _3  and  _6
REMARK    4  A    between atoms: _6  and  _7
REMARK    5  A    between atoms: _12  and  _14
REMARK    6  A    between atoms: _14  and  _15
REMARK    7  A    between atoms: _17  and  _19
REMARK    8  A    between atoms: _19  and  _20
REMARK    9  A    between atoms: _19  and  _22
REMARK   10  A    between atoms: _22  and  _23
REMARK   11  A    between atoms: _25  and  _27
REMARK   12  A    between atoms: _27  and  _28
REMARK   13  A    between atoms: _27  and  _30
REMARK   14  A    between atoms: _30  and  _31
REMARK   15  A    between atoms: _31  and  _32
REMARK   16  A    between atoms: _37  and  _39
REMARK   17  A    between atoms: _39  and  _40
REMARK   18  A    between atoms: _39  and  _42
REMARK   19  A    between atoms: _42  and  _43
REMARK   20  A    between atoms: _46  and  _48
REMARK   21  A    between atoms: _48  and  _49
REMARK   22  A    between atoms: _48  and  _51
REMARK   23  A    between atoms: _51  and  _52
REMARK   24  A    between atoms: _52  and  _53
REMARK   25  A    between atoms: _56  and  _58
REMARK   26  A    between atoms: _58  and  _59
REMARK   27  A    between atoms: _61  and  _63
REMARK   28  A    between atoms: _63  and  _64
REMARK   29  A    between atoms: _63  and  _66
REMARK   30  A    between atoms: _70  and  _71
REMARK   31  A    between atoms: _76  and  _78
REMARK   32  A    between atoms: _78  and  _79
REMARK   33  A    between atoms: _78  and  _81
REMARK   34  A    between atoms: _81  and  _82
REMARK   35  A    between atoms: _82  and  _83
REMARK   36  A    between atoms: _86  and  _88
REMARK   37  A    between atoms: _88  and  _89
REMARK   38  A    between atoms: _88  and  _91
REMARK   39  A    between atoms: _91  and  _92
REMARK   40  A    between atoms: _94  and  _96
REMARK   41  A    between atoms: _96  and  _97
REMARK   42  A    between atoms: _96  and  _99
REMARK   43  A    between atoms: _99  and  _100
REMARK   44  A    between atoms: _105  and  _107
REMARK   45  A    between atoms: _107  and  _108
REMARK   46  A    between atoms: _107  and  _110
REMARK   47  A    between atoms: _110  and  _111
REMARK   48  A    between atoms: _111  and  _112
REMARK   49  A    between atoms: _112  and  _113
REMARK   50  A    between atoms: _123  and  _124
REMARK   51  A    between atoms: _129  and  _131
REMARK   52  A    between atoms: _131  and  _132
REMARK   53  A    between atoms: _131  and  _134
REMARK   54  A    between atoms: _134  and  _135
REMARK   55  A    between atoms: _140  and  _141
REMARK   56  A    between atoms: _143  and  _145
REMARK   57  A    between atoms: _145  and  _146
REMARK   58  A    between atoms: _145  and  _148
REMARK   59  A    between atoms: _148  and  _149
REMARK   60  A    between atoms: _154  and  _155
REMARK   61  A    between atoms: _157  and  _159
REMARK   62  A    between atoms: _159  and  _160
REMARK   63  A    between atoms: _159  and  _162
REMARK   64  A    between atoms: _162  and  _163
REMARK   65  A    between atoms: _168  and  _169
REMARK   66  A    between atoms: _171  and  _173
REMARK   67  A    between atoms: _173  and  _174
REMARK   68  A    between atoms: _173  and  _176
REMARK   69  A    between atoms: _179  and  _181
REMARK   70  A    between atoms: _181  and  _182
REMARK   71  A    between atoms: _181  and  _184
REMARK   72  A    between atoms: _184  and  _185
REMARK   73  A    between atoms: _191  and  _192
REMARK   74  A    between atoms: _197  and  _199
REMARK   75  A    between atoms: _199  and  _200
REMARK   76  A    between atoms: _199  and  _202
REMARK   77  A    between atoms: _202  and  _203
REMARK   78  A    between atoms: _205  and  _207
REMARK   79  A    between atoms: _207  and  _208
REMARK   80  A    between atoms: _207  and  _210
REMARK   81  A    between atoms: _210  and  _211
REMARK   82  A    between atoms: _211  and  _212
REMARK   83  A    between atoms: _215  and  _217
REMARK   84  A    between atoms: _217  and  _218
REMARK   85  A    between atoms: _217  and  _220
REMARK   86  A    between atoms: _220  and  _221
REMARK   87  A    between atoms: _226  and  _227
REMARK   88  A    between atoms: _229  and  _231
REMARK   89  A    between atoms: _231  and  _232
REMARK   90  A    between atoms: _231  and  _234
REMARK   91  A    between atoms: _234  and  _235
REMARK   92  A    between atoms: _240  and  _242
REMARK   93  A    between atoms: _242  and  _243
REMARK   94  A    between atoms: _242  and  _245
REMARK   95  A    between atoms: _245  and  _246
REMARK   96  A    between atoms: _251  and  _253
REMARK   97  A    between atoms: _253  and  _254
REMARK   98  A    between atoms: _253  and  _256
REMARK   99  A    between atoms: _256  and  _257
REMARK  100  A    between atoms: _257  and  _258
REMARK  101  A    between atoms: _260  and  _262
REMARK  102  A    between atoms: _262  and  _263
REMARK  103  A    between atoms: _262  and  _265
REMARK  104  A    between atoms: _265  and  _266
REMARK  105  A    between atoms: _271  and  _272
REMARK  106  A    between atoms: _274  and  _276
REMARK  107  A    between atoms: _276  and  _277
REMARK  108  A    between atoms: _276  and  _279
REMARK  109  A    between atoms: _279  and  _280
REMARK  110  A    between atoms: _283  and  _285
REMARK  111  A    between atoms: _285  and  _286
REMARK  112  A    between atoms: _285  and  _288
REMARK  113  A    between atoms: _288  and  _289
REMARK  114  A    between atoms: _289  and  _497
REMARK  115  A    between atoms: _290  and  _292
REMARK  116  A    between atoms: _292  and  _293
REMARK  117  A    between atoms: _292  and  _295
REMARK  118  A    between atoms: _295  and  _296
REMARK  119  A    between atoms: _299  and  _301
REMARK  120  A    between atoms: _301  and  _302
REMARK  121  A    between atoms: _301  and  _304
REMARK  122  A    between atoms: _304  and  _305
REMARK  123  A    between atoms: _310  and  _311
REMARK  124  A    between atoms: _313  and  _315
REMARK  125  A    between atoms: _315  and  _316
REMARK  126  A    between atoms: _315  and  _318
REMARK  127  A    between atoms: _318  and  _319
REMARK  128  A    between atoms: _324  and  _325
REMARK  129  A    between atoms: _327  and  _329
REMARK  130  A    between atoms: _329  and  _330
REMARK  131  A    between atoms: _329  and  _332
REMARK  132  A    between atoms: _332  and  _333
REMARK  133  A    between atoms: _333  and  _334
REMARK  134  A    between atoms: _337  and  _339
REMARK  135  A    between atoms: _339  and  _340
REMARK  136  A    between atoms: _339  and  _342
REMARK  137  A    between atoms: _342  and  _343
REMARK  138  A    between atoms: _348  and  _349
REMARK  139  A    between atoms: _351  and  _353
REMARK  140  A    between atoms: _353  and  _354
REMARK  141  A    between atoms: _353  and  _356
REMARK  142  A    between atoms: _356  and  _357
REMARK  143  A    between atoms: _362  and  _364
REMARK  144  A    between atoms: _364  and  _365
REMARK  145  A    between atoms: _364  and  _367
REMARK  146  A    between atoms: _367  and  _368
REMARK  147  A    between atoms: _371  and  _373
REMARK  148  A    between atoms: _373  and  _374
REMARK  149  A    between atoms: _373  and  _376
REMARK  150  A    between atoms: _376  and  _377
REMARK  151  A    between atoms: _382  and  _384
REMARK  152  A    between atoms: _384  and  _385
REMARK  153  A    between atoms: _384  and  _387
REMARK  154  A    between atoms: _387  and  _388
REMARK  155  A    between atoms: _398  and  _400
REMARK  156  A    between atoms: _400  and  _401
REMARK  157  A    between atoms: _400  and  _403
REMARK  158  A    between atoms: _403  and  _404
REMARK  159  A    between atoms: _410  and  _412
REMARK  160  A    between atoms: _412  and  _413
REMARK  161  A    between atoms: _412  and  _415
REMARK  162  A    between atoms: _415  and  _416
REMARK  163  A    between atoms: _419  and  _421
REMARK  164  A    between atoms: _421  and  _422
REMARK  165  A    between atoms: _421  and  _424
REMARK  166  A    between atoms: _424  and  _425
REMARK  167  A    between atoms: _425  and  _426
REMARK  168  A    between atoms: _426  and  _427
REMARK  169  A    between atoms: _436  and  _438
REMARK  170  A    between atoms: _438  and  _439
REMARK  171  A    between atoms: _438  and  _441
REMARK  172  A    between atoms: _441  and  _442
REMARK  173  A    between atoms: _447  and  _449
REMARK  174  A    between atoms: _449  and  _450
REMARK  175  A    between atoms: _449  and  _452
REMARK  176  A    between atoms: _452  and  _453
REMARK  177  A    between atoms: _453  and  _454
REMARK  178  A    between atoms: _454  and  _455
REMARK  179  A    between atoms: _464  and  _466
REMARK  180  A    between atoms: _466  and  _467
REMARK  181  A    between atoms: _470  and  _472
REMARK  182  A    between atoms: _472  and  _473
REMARK  183  A    between atoms: _475  and  _477
REMARK  184  A    between atoms: _477  and  _478
REMARK  185  A    between atoms: _477  and  _480
REMARK  186  A    between atoms: _480  and  _481
REMARK  187  A    between atoms: _491  and  _493
REMARK  188  A    between atoms: _493  and  _494
REMARK  189  A    between atoms: _493  and  _496
REMARK  190  A    between atoms: _496  and  _497
REMARK  191  A    between atoms: _498  and  _500
REMARK  192  A    between atoms: _500  and  _501
REMARK  193  A    between atoms: _504  and  _506
REMARK  194  A    between atoms: _506  and  _507
REMARK  195  A    between atoms: _506  and  _509
REMARK  196  A    between atoms: _509  and  _510
REMARK  197  A    between atoms: _513  and  _515
REMARK  198  A    between atoms: _515  and  _516
REMARK  199  A    between atoms: _515  and  _518
REMARK  200  A    between atoms: _518  and  _519
REMARK  201  A    between atoms: _524  and  _525
REMARK  202  A    between atoms: _527  and  _529
REMARK  203  A    between atoms: _529  and  _530
REMARK  204  A    between atoms: _529  and  _532
REMARK  205  A    between atoms: _532  and  _533
REMARK  206  A    between atoms: _535  and  _537
REMARK  207  A    between atoms: _537  and  _538
REMARK  208  A    between atoms: _537  and  _540
REMARK  209  A    between atoms: _540  and  _541
REMARK  210  A    between atoms: _547  and  _549
REMARK  211  A    between atoms: _549  and  _550
REMARK  212  A    between atoms: _549  and  _552
REMARK  213  A    between atoms: _552  and  _553
REMARK  214  A    between atoms: _556  and  _558
REMARK  215  A    between atoms: _558  and  _559
REMARK  216  A    between atoms: _558  and  _561
REMARK  217  A    between atoms: _561  and  _562
REMARK  218  A    between atoms: _562  and  _563
REMARK  219  A    between atoms: _565  and  _567
REMARK  220  A    between atoms: _567  and  _568
REMARK  221  A    between atoms: _567  and  _570
REMARK  222  A    between atoms: _570  and  _571
REMARK  223  A    between atoms: _573  and  _575
REMARK  224  A    between atoms: _575  and  _576
REMARK  225  A    between atoms: _575  and  _578
REMARK  226  A    between atoms: _578  and  _579
REMARK  227  A    between atoms: _581  and  _583
REMARK  228  A    between atoms: _583  and  _584
REMARK  229  A    between atoms: _583  and  _586
REMARK  230  A    between atoms: _586  and  _587
REMARK  231  A    between atoms: _592  and  _594
REMARK  232  A    between atoms: _594  and  _595
REMARK  233  A    between atoms: _594  and  _597
REMARK  234  A    between atoms: _597  and  _598
REMARK  235  A    between atoms: _603  and  _605
REMARK  236  A    between atoms: _605  and  _606
REMARK  237  A    between atoms: _605  and  _608
REMARK  238  A    between atoms: _608  and  _609
REMARK  239  A    between atoms: _612  and  _614
REMARK  240  A    between atoms: _614  and  _615
REMARK  241  A    between atoms: _618  and  _620
REMARK  242  A    between atoms: _620  and  _621
REMARK  243  A    between atoms: _620  and  _623
REMARK  244  A    between atoms: _623  and  _624
REMARK  245  A    between atoms: _629  and  _631
REMARK  246  A    between atoms: _631  and  _632
REMARK  247  A    between atoms: _631  and  _634
REMARK  248  A    between atoms: _634  and  _635
REMARK  249  A    between atoms: _640  and  _641
REMARK  250  A    between atoms: _643  and  _645
REMARK  251  A    between atoms: _645  and  _646
REMARK  252  A    between atoms: _645  and  _648
REMARK  253  A    between atoms: _648  and  _649
REMARK  254  A    between atoms: _654  and  _655
REMARK  255  A    between atoms: _657  and  _659
REMARK  256  A    between atoms: _659  and  _660
REMARK  257  A    between atoms: _659  and  _662
REMARK  258  A    between atoms: _665  and  _667
REMARK  259  A    between atoms: _667  and  _668
REMARK  260  A    between atoms: _667  and  _670
REMARK  261  A    between atoms: _670  and  _671
REMARK  262  A    between atoms: _676  and  _678
REMARK  263  A    between atoms: _678  and  _679
REMARK  264  A    between atoms: _682  and  _684
REMARK  265  A    between atoms: _684  and  _685
REMARK  266  A    between atoms: _684  and  _687
REMARK  267  A    between atoms: _687  and  _688
REMARK  268  A    between atoms: _688  and  _689
REMARK  269  A    between atoms: _689  and  _690
REMARK  270  A    between atoms: _699  and  _701
REMARK  271  A    between atoms: _701  and  _702
REMARK  272  A    between atoms: _701  and  _704
REMARK  273  A    between atoms: _704  and  _705
REMARK  274  A    between atoms: _708  and  _710
REMARK  275  A    between atoms: _710  and  _711
REMARK  276  A    between atoms: _710  and  _713
REMARK  277  A    between atoms: _713  and  _714
REMARK  278  A    between atoms: _717  and  _719
REMARK  279  A    between atoms: _719  and  _720
REMARK  280  A    between atoms: _719  and  _722
REMARK  281  A    between atoms: _722  and  _723
REMARK                            x       y       z     vdW  Elec       q    Type
REMARK                         _______ _______ _______ _____ _____    ______ ____
ROOT
ATOM      1  CA  HIS A   2      11.928  14.649   8.288  0.00  0.00    +0.155 C 
ENDROOT
BRANCH   1   2
ATOM      2  C   HIS A   2      12.438  15.864   7.572  0.00  0.00    +0.244 C 
ATOM      3  N   PRO A   3      11.684  16.957   7.478  0.00  0.00    -0.272 N 
ATOM      4  CD  PRO A   3      10.275  17.081   7.966  0.00  0.00    +0.094 C 
ATOM      5  CG  PRO A   3       9.730  18.192   7.074  0.00  0.00    +0.024 C 
ATOM      6  CB  PRO A   3      10.899  19.114   6.908  0.00  0.00    +0.031 C 
ATOM      7  CA  PRO A   3      12.064  18.126   6.721  0.00  0.00    +0.152 C 
ATOM      8  O   HIS A   2      13.594  15.865   7.119  0.00  0.00    -0.273 OA
BRANCH   7   9
ATOM      9  C   PRO A   3      13.352  18.759   7.198  0.00  0.00    +0.241 C 
ATOM     10  N   SER A   4      13.658  18.690   8.495  0.00  0.00    -0.296 N 
ATOM     11  H   SER A   4      13.035  18.177   9.151  0.00  0.00    +0.150 HD
ATOM     12  O   PRO A   3      14.092  19.272   6.365  0.00  0.00    -0.273 OA
BRANCH  10  13
ATOM     13  CA  SER A   4      14.877  19.340   8.995  0.00  0.00    +0.166 C 
BRANCH  13  14
ATOM     14  C   SER A   4      16.147  18.783   8.391  0.00  0.00    +0.229 C 
ATOM     15  O   SER A   4      17.155  19.508   8.329  0.00  0.00    -0.286 OA
ENDBRANCH  13  14
BRANCH  13  16
ATOM     16  CB  SER A   4      14.879  19.298  10.524  0.00  0.00    +0.165 C 
BRANCH  16  17
ATOM     17  OG  SER A   4      15.118  17.988  11.016  0.00  0.00    -0.380 OA
ATOM     18  H   SER A   4      14.409  17.379  10.689  0.00  0.00    +0.211 HD
ENDBRANCH  16  17
ENDBRANCH  13  16
ENDBRANCH  10  13
ENDBRANCH   7   9
ENDBRANCH   1   2
BRANCH   1  20
ATOM     19  C   VAL A   1      11.919  12.809   6.604  0.00  0.00    +0.238 C 
ATOM     20  N   HIS A   2      12.371  13.392   7.694  0.00  0.00    -0.297 N 
ATOM     21  H   HIS A   2      13.137  12.896   8.193  0.00  0.00    +0.150 HD
ATOM     22  O   VAL A   1      11.123  13.421   5.871  0.00  0.00    -0.274 OA
BRANCH  19  23
ATOM     23  CA  VAL A   1      12.418  11.435   6.194  0.00  0.00    +0.145 C 
BRANCH  23  24
ATOM     24  CB  VAL A   1      11.298  10.377   6.185  0.00  0.00    +0.025 C 
ATOM     25  CG2 VAL A   1      10.717  10.216   7.581  0.00  0.00    +0.002 C 
ATOM     26  CG1 VAL A   1      11.836   8.998   5.767  0.00  0.00    +0.002 C 
ENDBRANCH  23  24
BRANCH  23  27
ATOM     27  N   VAL A   1      13.508  10.959   7.048  0.00  0.00    -0.238 NA
ATOM     28  H   VAL A   1      13.301  10.365   7.876  0.00  0.00    +0.142 HD
ENDBRANCH  23  27
ENDBRANCH  19  23
ENDBRANCH   1  20
BRANCH   1  29
ATOM     29  CB  HIS A   2      12.478  14.590   9.751  0.00  0.00    +0.076 C 
BRANCH  29  30
ATOM     30  CG  HIS A   2      11.851  15.652  10.600  0.00  0.00    +0.082 A 
ATOM     31  CD2 HIS A   2      10.645  15.741  11.189  0.00  0.00    +0.115 A 
ATOM     32  NE2 HIS A   2      10.589  16.948  11.853  0.00  0.00    -0.221 NA
ATOM     33  CE1 HIS A   2      11.738  17.592  11.651  0.00  0.00    +0.199 A 
ATOM     34  ND1 HIS A   2      12.529  16.824  10.904  0.00  0.00    -0.227 NA
ENDBRANCH  29  30
ENDBRANCH   1  29
TORSDOF 12
REMARK  Name = ../refined-set-2016/1qka/1qka_pocket.pdb
REMARK  281 active torsions:
REMARK  status: ('A' for Active; 'I' for Inactive)
REMARK    1  A    between atoms: _1  and  _3
REMARK    2  A    between atoms: _3  and  _4
REMARK    3  A    between atoms: _3  and  _6
REMARK    4  A    between atoms: _6  and  _7
REMARK    5  A    between atoms: _12  and  _14
REMARK    6  A    between atoms: _14  and  _15
REMARK    7  A    between atoms: _17  and  _19
REMARK    8  A    between atoms: _19  and  _20
REMARK    9  A    between atoms: _19  and  _22
REMARK   10  A    between atoms: _22  and  _23
REMARK   11  A    between atoms: _25  and  _27
REMARK   12  A    between atoms: _27  and  _28
REMARK   13  A    between atoms: _27  and  _30
REMARK   14  A    between atoms: _30  and  _31
REMARK   15  A    between atoms: _31  and  _32
REMARK   16  A    between atoms: _37  and  _39
REMARK   17  A    between atoms: _39  and  _40
REMARK   18  A    between atoms: _39  and  _42
REMARK   19  A    between atoms: _42  and  _43
REMARK   20  A    between atoms: _46  and  _48
REMARK   21  A    between atoms: _48  and  _49
REMARK   22  A    between atoms: _48  and  _51
REMARK   23  A    between atoms: _51  and  _52
REMARK   24  A    between atoms: _52  and  _53
REMARK   25  A    between atoms: _56  and  _58
REMARK   26  A    between atoms: _58  and  _59
REMARK   27  A    between atoms: _61  and  _63
REMARK   28  A    between atoms: _63  and  _64
REMARK   29  A    between atoms: _63  and  _66
REMARK   30  A    between atoms: _70  and  _71
REMARK   31  A    between atoms: _76  and  _78
REMARK   32  A    between atoms: _78  and  _79
REMARK   33  A    between atoms: _78  and  _81
REMARK   34  A    between atoms: _81  and  _82
REMARK   35  A    between atoms: _82  and  _83
REMARK   36  A    between atoms: _86  and  _88
REMARK   37  A    between atoms: _88  and  _89
REMARK   38  A    between atoms: _88  and  _91
REMARK   39  A    between atoms: _91  and  _92
REMARK   40  A    between atoms: _94  and  _96
REMARK   41  A    between atoms: _96  and  _97
REMARK   42  A    between atoms: _96  and  _99
REMARK   43  A    between atoms: _99  and  _100
REMARK   44  A    between atoms: _105  and  _107
REMARK   45  A    between atoms: _107  and  _108
REMARK   46  A    between atoms: _107  and  _110
REMARK   47  A    between atoms: _110  and  _111
REMARK   48  A    between atoms: _111  and  _112
REMARK   49  A    between atoms: _112  and  _113
REMARK   50  A    between atoms: _123  and  _124
REMARK   51  A    between atoms: _129  and  _131
REMARK   52  A    between atoms: _131  and  _132
REMARK   53  A    between atoms: _131  and  _134
REMARK   54  A    between atoms: _134  and  _135
REMARK   55  A    between atoms: _140  and  _141
REMARK   56  A    between atoms: _143  and  _145
REMARK   57  A    between atoms: _145  and  _146
REMARK   58  A    between atoms: _145  and  _148
REMARK   59  A    between atoms: _148  and  _149
REMARK   60  A    between atoms: _154  and  _155
REMARK   61  A    between atoms: _157  and  _159
REMARK   62  A    between atoms: _159  and  _160
REMARK   63  A    between atoms: _159  and  _162
REMARK   64  A    between atoms: _162  and  _163
REMARK   65  A    between atoms: _168  and  _169
REMARK   66  A    between atoms: _171  and  _173
REMARK   67  A    between atoms: _173  and  _174
REMARK   68  A    between atoms: _173  and  _176
REMARK   69  A    between atoms: _179  and  _181
REMARK   70  A    between atoms: _181  and  _182
REMARK   71  A    between atoms: _181  and  _184
REMARK   72  A    between atoms: _184  and  _185
REMARK   73  A    between atoms: _191  and  _192
REMARK   74  A    between atoms: _197  and  _199
REMARK   75  A    between atoms: _199  and  _200
REMARK   76  A    between atoms: _199  and  _202
REMARK   77  A    between atoms: _202  and  _203
REMARK   78  A    between atoms: _205  and  _207
REMARK   79  A    between atoms: _207  and  _208
REMARK   80  A    between atoms: _207  and  _210
REMARK   81  A    between atoms: _210  and  _211
REMARK   82  A    between atoms: _211  and  _212
REMARK   83  A    between atoms: _215  and  _217
REMARK   84  A    between atoms: _217  and  _218
REMARK   85  A    between atoms: _217  and  _220
REMARK   86  A    between atoms: _220  and  _221
REMARK   87  A    between atoms: _226  and  _227
REMARK   88  A    between atoms: _229  and  _231
REMARK   89  A    between atoms: _231  and  _232
REMARK   90  A    between atoms: _231  and  _234
REMARK   91  A    between atoms: _234  and  _235
REMARK   92  A    between atoms: _240  and  _242
REMARK   93  A    between atoms: _242  and  _243
REMARK   94  A    between atoms: _242  and  _245
REMARK   95  A    between atoms: _245  and  _246
REMARK   96  A    between atoms: _251  and  _253
REMARK   97  A    between atoms: _253  and  _254
REMARK   98  A    between atoms: _253  and  _256
REMARK   99  A    between atoms: _256  and  _257
REMARK  100  A    between atoms: _257  and  _258
REMARK  101  A    between atoms: _260  and  _262
REMARK  102  A    between atoms: _262  and  _263
REMARK  103  A    between atoms: _262  and  _265
REMARK  104  A    between atoms: _265  and  _266
REMARK  105  A    between atoms: _271  and  _272
REMARK  106  A    between atoms: _274  and  _276
REMARK  107  A    between atoms: _276  and  _277
REMARK  108  A    between atoms: _276  and  _279
REMARK  109  A    between atoms: _279  and  _280
REMARK  110  A    between atoms: _283  and  _285
REMARK  111  A    between atoms: _285  and  _286
REMARK  112  A    between atoms: _285  and  _288
REMARK  113  A    between atoms: _288  and  _289
REMARK  114  A    between atoms: _289  and  _497
REMARK  115  A    between atoms: _290  and  _292
REMARK  116  A    between atoms: _292  and  _293
REMARK  117  A    between atoms: _292  and  _295
REMARK  118  A    between atoms: _295  and  _296
REMARK  119  A    between atoms: _299  and  _301
REMARK  120  A    between atoms: _301  and  _302
REMARK  121  A    between atoms: _301  and  _304
REMARK  122  A    between atoms: _304  and  _305
REMARK  123  A    between atoms: _310  and  _311
REMARK  124  A    between atoms: _313  and  _315
REMARK  125  A    between atoms: _315  and  _316
REMARK  126  A    between atoms: _315  and  _318
REMARK  127  A    between atoms: _318  and  _319
REMARK  128  A    between atoms: _324  and  _325
REMARK  129  A    between atoms: _327  and  _329
REMARK  130  A    between atoms: _329  and  _330
REMARK  131  A    between atoms: _329  and  _332
REMARK  132  A    between atoms: _332  and  _333
REMARK  133  A    between atoms: _333  and  _334
REMARK  134  A    between atoms: _337  and  _339
REMARK  135  A    between atoms: _339  and  _340
REMARK  136  A    between atoms: _339  and  _342
REMARK  137  A    between atoms: _342  and  _343
REMARK  138  A    between atoms: _348  and  _349
REMARK  139  A    between atoms: _351  and  _353
REMARK  140  A    between atoms: _353  and  _354
REMARK  141  A    between atoms: _353  and  _356
REMARK  142  A    between atoms: _356  and  _357
REMARK  143  A    between atoms: _362  and  _364
REMARK  144  A    between atoms: _364  and  _365
REMARK  145  A    between atoms: _364  and  _367
REMARK  146  A    between atoms: _367  and  _368
REMARK  147  A    between atoms: _371  and  _373
REMARK  148  A    between atoms: _373  and  _374
REMARK  149  A    between atoms: _373  and  _376
REMARK  150  A    between atoms: _376  and  _377
REMARK  151  A    between atoms: _382  and  _384
REMARK  152  A    between atoms: _384  and  _385
REMARK  153  A    between atoms: _384  and  _387
REMARK  154  A    between atoms: _387  and  _388
REMARK  155  A    between atoms: _398  and  _400
REMARK  156  A    between atoms: _400  and  _401
REMARK  157  A    between atoms: _400  and  _403
REMARK  158  A    between atoms: _403  and  _404
REMARK  159  A    between atoms: _410  and  _412
REMARK  160  A    between atoms: _412  and  _413
REMARK  161  A    between atoms: _412  and  _415
REMARK  162  A    between atoms: _415  and  _416
REMARK  163  A    between atoms: _419  and  _421
REMARK  164  A    between atoms: _421  and  _422
REMARK  165  A    between atoms: _421  and  _424
REMARK  166  A    between atoms: _424  and  _425
REMARK  167  A    between atoms: _425  and  _426
REMARK  168  A    between atoms: _426  and  _427
REMARK  169  A    between atoms: _436  and  _438
REMARK  170  A    between atoms: _438  and  _439
REMARK  171  A    between atoms: _438  and  _441
REMARK  172  A    between atoms: _441  and  _442
REMARK  173  A    between atoms: _447  and  _449
REMARK  174  A    between atoms: _449  and  _450
REMARK  175  A    between atoms: _449  and  _452
REMARK  176  A    between atoms: _452  and  _453
REMARK  177  A    between atoms: _453  and  _454
REMARK  178  A    between atoms: _454  and  _455
REMARK  179  A    between atoms: _464  and  _466
REMARK  180  A    between atoms: _466  and  _467
REMARK  181  A    between atoms: _470  and  _472
REMARK  182  A    between atoms: _472  and  _473
REMARK  183  A    between atoms: _475  and  _477
REMARK  184  A    between atoms: _477  and  _478
REMARK  185  A    between atoms: _477  and  _480
REMARK  186  A    between atoms: _480  and  _481
REMARK  187  A    between atoms: _491  and  _493
REMARK  188  A    between atoms: _493  and  _494
REMARK  189  A    between atoms: _493  and  _496
REMARK  190  A    between atoms: _496  and  _497
REMARK  191  A    between atoms: _498  and  _500
REMARK  192  A    between atoms: _500  and  _501
REMARK  193  A    between atoms: _504  and  _506
REMARK  194  A    between atoms: _506  and  _507
REMARK  195  A    between atoms: _506  and  _509
REMARK  196  A    between atoms: _509  and  _510
REMARK  197  A    between atoms: _513  and  _515
REMARK  198  A    between atoms: _515  and  _516
REMARK  199  A    between atoms: _515  and  _518
REMARK  200  A    between atoms: _518  and  _519
REMARK  201  A    between atoms: _524  and  _525
REMARK  202  A    between atoms: _527  and  _529
REMARK  203  A    between atoms: _529  and  _530
REMARK  204  A    between atoms: _529  and  _532
REMARK  205  A    between atoms: _532  and  _533
REMARK  206  A    between atoms: _535  and  _537
REMARK  207  A    between atoms: _537  and  _538
REMARK  208  A    between atoms: _537  and  _540
REMARK  209  A    between atoms: _540  and  _541
REMARK  210  A    between atoms: _547  and  _549
REMARK  211  A    between atoms: _549  and  _550
REMARK  212  A    between atoms: _549  and  _552
REMARK  213  A    between atoms: _552  and  _553
REMARK  214  A    between atoms: _556  and  _558
REMARK  215  A    between atoms: _558  and  _559
REMARK  216  A    between atoms: _558  and  _561
REMARK  217  A    between atoms: _561  and  _562
REMARK  218  A    between atoms: _562  and  _563
REMARK  219  A    between atoms: _565  and  _567
REMARK  220  A    between atoms: _567  and  _568
REMARK  221  A    between atoms: _567  and  _570
REMARK  222  A    between atoms: _570  and  _571
REMARK  223  A    between atoms: _573  and  _575
REMARK  224  A    between atoms: _575  and  _576
REMARK  225  A    between atoms: _575  and  _578
REMARK  226  A    between atoms: _578  and  _579
REMARK  227  A    between atoms: _581  and  _583
REMARK  228  A    between atoms: _583  and  _584
REMARK  229  A    between atoms: _583  and  _586
REMARK  230  A    between atoms: _586  and  _587
REMARK  231  A    between atoms: _592  and  _594
REMARK  232  A    between atoms: _594  and  _595
REMARK  233  A    between atoms: _594  and  _597
REMARK  234  A    between atoms: _597  and  _598
REMARK  235  A    between atoms: _603  and  _605
REMARK  236  A    between atoms: _605  and  _606
REMARK  237  A    between atoms: _605  and  _608
REMARK  238  A    between atoms: _608  and  _609
REMARK  239  A    between atoms: _612  and  _614
REMARK  240  A    between atoms: _614  and  _615
REMARK  241  A    between atoms: _618  and  _620
REMARK  242  A    between atoms: _620  and  _621
REMARK  243  A    between atoms: _620  and  _623
REMARK  244  A    between atoms: _623  and  _624
REMARK  245  A    between atoms: _629  and  _631
REMARK  246  A    between atoms: _631  and  _632
REMARK  247  A    between atoms: _631  and  _634
REMARK  248  A    between atoms: _634  and  _635
REMARK  249  A    between atoms: _640  and  _641
REMARK  250  A    between atoms: _643  and  _645
REMARK  251  A    between atoms: _645  and  _646
REMARK  252  A    between atoms: _645  and  _648
REMARK  253  A    between atoms: _648  and  _649
REMARK  254  A    between atoms: _654  and  _655
REMARK  255  A    between atoms: _657  and  _659
REMARK  256  A    between atoms: _659  and  _660
REMARK  257  A    between atoms: _659  and  _662
REMARK  258  A    between atoms: _665  and  _667
REMARK  259  A    between atoms: _667  and  _668
REMARK  260  A    between atoms: _667  and  _670
REMARK  261  A    between atoms: _670  and  _671
REMARK  262  A    between atoms: _676  and  _678
REMARK  263  A    between atoms: _678  and  _679
REMARK  264  A    between atoms: _682  and  _684
REMARK  265  A    between atoms: _684  and  _685
REMARK  266  A    between atoms: _684  and  _687
REMARK  267  A    between atoms: _687  and  _688
REMARK  268  A    between atoms: _688  and  _689
REMARK  269  A    between atoms: _689  and  _690
REMARK  270  A    between atoms: _699  and  _701
REMARK  271  A    between atoms: _701  and  _702
REMARK  272  A    between atoms: _701  and  _704
REMARK  273  A    between atoms: _704  and  _705
REMARK  274  A    between atoms: _708  and  _710
REMARK  275  A    between atoms: _710  and  _711
REMARK  276  A    between atoms: _710  and  _713
REMARK  277  A    between atoms: _713  and  _714
REMARK  278  A    between atoms: _717  and  _719
REMARK  279  A    between atoms: _719  and  _720
REMARK  280  A    between atoms: _719  and  _722
REMARK  281  A    between atoms: _722  and  _723
REMARK                            x       y       z     vdW  Elec       q    Type
REMARK                         _______ _______ _______ _____ _____    ______ ____
ROOT
ATOM      1  CA  GLU A   1     -12.606  23.631  10.534  0.00  0.00    +0.134 C 
ENDROOT
BRANCH   1   2
ATOM      2  N   GLU A   1     -12.316  24.996  11.000  0.00  0.00    -0.239 NA
ATOM      3  H   GLU A   1     -12.259  25.183  12.021  0.00  0.00    +0.142 HD
ENDBRANCH   1   2
BRANCH   1   4
ATOM      4  C   GLU A   1     -13.970  23.594   9.845  0.00  0.00    +0.224 C 
ATOM      5  O   GLU A   1     -14.178  22.838   8.890  0.00  0.00    -0.287 OA
ENDBRANCH   1   4
BRANCH   1   6
ATOM      6  CB  GLU A   1     -12.533  22.656  11.728  0.00  0.00    +0.037 C 
BRANCH   6   7
ATOM      7  CG  GLU A   1     -11.117  22.559  12.339  0.00  0.00    +0.116 C 
BRANCH   7   8
ATOM      8  CD  GLU A   1     -10.811  23.595  13.400  0.00  0.00    +0.365 C 
ATOM      9  OE2 GLU A   1      -9.691  23.556  13.980  0.00  0.00    -0.246 OA
ATOM     10  OE1 GLU A   1     -11.644  24.492  13.647  0.00  0.00    -0.246 OA
ENDBRANCH   7   8
ENDBRANCH   6   7
ENDBRANCH   1   6
TORSDOF 5
REMARK  Name = ../refined-set-2016/1qka/1qka_pocket.pdb
REMARK  281 active torsions:
REMARK  status: ('A' for Active; 'I' for Inactive)
REMARK    1  A    between atoms: _1  and  _3
REMARK    2  A    between atoms: _3  and  _4
REMARK    3  A    between atoms: _3  and  _6
REMARK    4  A    between atoms: _6  and  _7
REMARK    5  A    between atoms: _12  and  _14
REMARK    6  A    between atoms: _14  and  _15
REMARK    7  A    between atoms: _17  and  _19
REMARK    8  A    between atoms: _19  and  _20
REMARK    9  A    between atoms: _19  and  _22
REMARK   10  A    between atoms: _22  and  _23
REMARK   11  A    between atoms: _25  and  _27
REMARK   12  A    between atoms: _27  and  _28
REMARK   13  A    between atoms: _27  and  _30
REMARK   14  A    between atoms: _30  and  _31
REMARK   15  A    between atoms: _31  and  _32
REMARK   16  A    between atoms: _37  and  _39
REMARK   17  A    between atoms: _39  and  _40
REMARK   18  A    between atoms: _39  and  _42
REMARK   19  A    between atoms: _42  and  _43
REMARK   20  A    between atoms: _46  and  _48
REMARK   21  A    between atoms: _48  and  _49
REMARK   22  A    between atoms: _48  and  _51
REMARK   23  A    between atoms: _51  and  _52
REMARK   24  A    between atoms: _52  and  _53
REMARK   25  A    between atoms: _56  and  _58
REMARK   26  A    between atoms: _58  and  _59
REMARK   27  A    between atoms: _61  and  _63
REMARK   28  A    between atoms: _63  and  _64
REMARK   29  A    between atoms: _63  and  _66
REMARK   30  A    between atoms: _70  and  _71
REMARK   31  A    between atoms: _76  and  _78
REMARK   32  A    between atoms: _78  and  _79
REMARK   33  A    between atoms: _78  and  _81
REMARK   34  A    between atoms: _81  and  _82
REMARK   35  A    between atoms: _82  and  _83
REMARK   36  A    between atoms: _86  and  _88
REMARK   37  A    between atoms: _88  and  _89
REMARK   38  A    between atoms: _88  and  _91
REMARK   39  A    between atoms: _91  and  _92
REMARK   40  A    between atoms: _94  and  _96
REMARK   41  A    between atoms: _96  and  _97
REMARK   42  A    between atoms: _96  and  _99
REMARK   43  A    between atoms: _99  and  _100
REMARK   44  A    between atoms: _105  and  _107
REMARK   45  A    between atoms: _107  and  _108
REMARK   46  A    between atoms: _107  and  _110
REMARK   47  A    between atoms: _110  and  _111
REMARK   48  A    between atoms: _111  and  _112
REMARK   49  A    between atoms: _112  and  _113
REMARK   50  A    between atoms: _123  and  _124
REMARK   51  A    between atoms: _129  and  _131
REMARK   52  A    between atoms: _131  and  _132
REMARK   53  A    between atoms: _131  and  _134
REMARK   54  A    between atoms: _134  and  _135
REMARK   55  A    between atoms: _140  and  _141
REMARK   56  A    between atoms: _143  and  _145
REMARK   57  A    between atoms: _145  and  _146
REMARK   58  A    between atoms: _145  and  _148
REMARK   59  A    between atoms: _148  and  _149
REMARK   60  A    between atoms: _154  and  _155
REMARK   61  A    between atoms: _157  and  _159
REMARK   62  A    between atoms: _159  and  _160
REMARK   63  A    between atoms: _159  and  _162
REMARK   64  A    between atoms: _162  and  _163
REMARK   65  A    between atoms: _168  and  _169
REMARK   66  A    between atoms: _171  and  _173
REMARK   67  A    between atoms: _173  and  _174
REMARK   68  A    between atoms: _173  and  _176
REMARK   69  A    between atoms: _179  and  _181
REMARK   70  A    between atoms: _181  and  _182
REMARK   71  A    between atoms: _181  and  _184
REMARK   72  A    between atoms: _184  and  _185
REMARK   73  A    between atoms: _191  and  _192
REMARK   74  A    between atoms: _197  and  _199
REMARK   75  A    between atoms: _199  and  _200
REMARK   76  A    between atoms: _199  and  _202
REMARK   77  A    between atoms: _202  and  _203
REMARK   78  A    between atoms: _205  and  _207
REMARK   79  A    between atoms: _207  and  _208
REMARK   80  A    between atoms: _207  and  _210
REMARK   81  A    between atoms: _210  and  _211
REMARK   82  A    between atoms: _211  and  _212
REMARK   83  A    between atoms: _215  and  _217
REMARK   84  A    between atoms: _217  and  _218
REMARK   85  A    between atoms: _217  and  _220
REMARK   86  A    between atoms: _220  and  _221
REMARK   87  A    between atoms: _226  and  _227
REMARK   88  A    between atoms: _229  and  _231
REMARK   89  A    between atoms: _231  and  _232
REMARK   90  A    between atoms: _231  and  _234
REMARK   91  A    between atoms: _234  and  _235
REMARK   92  A    between atoms: _240  and  _242
REMARK   93  A    between atoms: _242  and  _243
REMARK   94  A    between atoms: _242  and  _245
REMARK   95  A    between atoms: _245  and  _246
REMARK   96  A    between atoms: _251  and  _253
REMARK   97  A    between atoms: _253  and  _254
REMARK   98  A    between atoms: _253  and  _256
REMARK   99  A    between atoms: _256  and  _257
REMARK  100  A    between atoms: _257  and  _258
REMARK  101  A    between atoms: _260  and  _262
REMARK  102  A    between atoms: _262  and  _263
REMARK  103  A    between atoms: _262  and  _265
REMARK  104  A    between atoms: _265  and  _266
REMARK  105  A    between atoms: _271  and  _272
REMARK  106  A    between atoms: _274  and  _276
REMARK  107  A    between atoms: _276  and  _277
REMARK  108  A    between atoms: _276  and  _279
REMARK  109  A    between atoms: _279  and  _280
REMARK  110  A    between atoms: _283  and  _285
REMARK  111  A    between atoms: _285  and  _286
REMARK  112  A    between atoms: _285  and  _288
REMARK  113  A    between atoms: _288  and  _289
REMARK  114  A    between atoms: _289  and  _497
REMARK  115  A    between atoms: _290  and  _292
REMARK  116  A    between atoms: _292  and  _293
REMARK  117  A    between atoms: _292  and  _295
REMARK  118  A    between atoms: _295  and  _296
REMARK  119  A    between atoms: _299  and  _301
REMARK  120  A    between atoms: _301  and  _302
REMARK  121  A    between atoms: _301  and  _304
REMARK  122  A    between atoms: _304  and  _305
REMARK  123  A    between atoms: _310  and  _311
REMARK  124  A    between atoms: _313  and  _315
REMARK  125  A    between atoms: _315  and  _316
REMARK  126  A    between atoms: _315  and  _318
REMARK  127  A    between atoms: _318  and  _319
REMARK  128  A    between atoms: _324  and  _325
REMARK  129  A    between atoms: _327  and  _329
REMARK  130  A    between atoms: _329  and  _330
REMARK  131  A    between atoms: _329  and  _332
REMARK  132  A    between atoms: _332  and  _333
REMARK  133  A    between atoms: _333  and  _334
REMARK  134  A    between atoms: _337  and  _339
REMARK  135  A    between atoms: _339  and  _340
REMARK  136  A    between atoms: _339  and  _342
REMARK  137  A    between atoms: _342  and  _343
REMARK  138  A    between atoms: _348  and  _349
REMARK  139  A    between atoms: _351  and  _353
REMARK  140  A    between atoms: _353  and  _354
REMARK  141  A    between atoms: _353  and  _356
REMARK  142  A    between atoms: _356  and  _357
REMARK  143  A    between atoms: _362  and  _364
REMARK  144  A    between atoms: _364  and  _365
REMARK  145  A    between atoms: _364  and  _367
REMARK  146  A    between atoms: _367  and  _368
REMARK  147  A    between atoms: _371  and  _373
REMARK  148  A    between atoms: _373  and  _374
REMARK  149  A    between atoms: _373  and  _376
REMARK  150  A    between atoms: _376  and  _377
REMARK  151  A    between atoms: _382  and  _384
REMARK  152  A    between atoms: _384  and  _385
REMARK  153  A    between atoms: _384  and  _387
REMARK  154  A    between atoms: _387  and  _388
REMARK  155  A    between atoms: _398  and  _400
REMARK  156  A    between atoms: _400  and  _401
REMARK  157  A    between atoms: _400  and  _403
REMARK  158  A    between atoms: _403  and  _404
REMARK  159  A    between atoms: _410  and  _412
REMARK  160  A    between atoms: _412  and  _413
REMARK  161  A    between atoms: _412  and  _415
REMARK  162  A    between atoms: _415  and  _416
REMARK  163  A    between atoms: _419  and  _421
REMARK  164  A    between atoms: _421  and  _422
REMARK  165  A    between atoms: _421  and  _424
REMARK  166  A    between atoms: _424  and  _425
REMARK  167  A    between atoms: _425  and  _426
REMARK  168  A    between atoms: _426  and  _427
REMARK  169  A    between atoms: _436  and  _438
REMARK  170  A    between atoms: _438  and  _439
REMARK  171  A    between atoms: _438  and  _441
REMARK  172  A    between atoms: _441  and  _442
REMARK  173  A    between atoms: _447  and  _449
REMARK  174  A    between atoms: _449  and  _450
REMARK  175  A    between atoms: _449  and  _452
REMARK  176  A    between atoms: _452  and  _453
REMARK  177  A    between atoms: _453  and  _454
REMARK  178  A    between atoms: _454  and  _455
REMARK  179  A    between atoms: _464  and  _466
REMARK  180  A    between atoms: _466  and  _467
REMARK  181  A    between atoms: _470  and  _472
REMARK  182  A    between atoms: _472  and  _473
REMARK  183  A    between atoms: _475  and  _477
REMARK  184  A    between atoms: _477  and  _478
REMARK  185  A    between atoms: _477  and  _480
REMARK  186  A    between atoms: _480  and  _481
REMARK  187  A    between atoms: _491  and  _493
REMARK  188  A    between atoms: _493  and  _494
REMARK  189  A    between atoms: _493  and  _496
REMARK  190  A    between atoms: _496  and  _497
REMARK  191  A    between atoms: _498  and  _500
REMARK  192  A    between atoms: _500  and  _501
REMARK  193  A    between atoms: _504  and  _506
REMARK  194  A    between atoms: _506  and  _507
REMARK  195  A    between atoms: _506  and  _509
REMARK  196  A    between atoms: _509  and  _510
REMARK  197  A    between atoms: _513  and  _515
REMARK  198  A    between atoms: _515  and  _516
REMARK  199  A    between atoms: _515  and  _518
REMARK  200  A    between atoms: _518  and  _519
REMARK  201  A    between atoms: _524  and  _525
REMARK  202  A    between atoms: _527  and  _529
REMARK  203  A    between atoms: _529  and  _530
REMARK  204  A    between atoms: _529  and  _532
REMARK  205  A    between atoms: _532  and  _533
REMARK  206  A    between atoms: _535  and  _537
REMARK  207  A    between atoms: _537  and  _538
REMARK  208  A    between atoms: _537  and  _540
REMARK  209  A    between atoms: _540  and  _541
REMARK  210  A    between atoms: _547  and  _549
REMARK  211  A    between atoms: _549  and  _550
REMARK  212  A    between atoms: _549  and  _552
REMARK  213  A    between atoms: _552  and  _553
REMARK  214  A    between atoms: _556  and  _558
REMARK  215  A    between atoms: _558  and  _559
REMARK  216  A    between atoms: _558  and  _561
REMARK  217  A    between atoms: _561  and  _562
REMARK  218  A    between atoms: _562  and  _563
REMARK  219  A    between atoms: _565  and  _567
REMARK  220  A    between atoms: _567  and  _568
REMARK  221  A    between atoms: _567  and  _570
REMARK  222  A    between atoms: _570  and  _571
REMARK  223  A    between atoms: _573  and  _575
REMARK  224  A    between atoms: _575  and  _576
REMARK  225  A    between atoms: _575  and  _578
REMARK  226  A    between atoms: _578  and  _579
REMARK  227  A    between atoms: _581  and  _583
REMARK  228  A    between atoms: _583  and  _584
REMARK  229  A    between atoms: _583  and  _586
REMARK  230  A    between atoms: _586  and  _587
REMARK  231  A    between atoms: _592  and  _594
REMARK  232  A    between atoms: _594  and  _595
REMARK  233  A    between atoms: _594  and  _597
REMARK  234  A    between atoms: _597  and  _598
REMARK  235  A    between atoms: _603  and  _605
REMARK  236  A    between atoms: _605  and  _606
REMARK  237  A    between atoms: _605  and  _608
REMARK  238  A    between atoms: _608  and  _609
REMARK  239  A    between atoms: _612  and  _614
REMARK  240  A    between atoms: _614  and  _615
REMARK  241  A    between atoms: _618  and  _620
REMARK  242  A    between atoms: _620  and  _621
REMARK  243  A    between atoms: _620  and  _623
REMARK  244  A    between atoms: _623  and  _624
REMARK  245  A    between atoms: _629  and  _631
REMARK  246  A    between atoms: _631  and  _632
REMARK  247  A    between atoms: _631  and  _634
REMARK  248  A    between atoms: _634  and  _635
REMARK  249  A    between atoms: _640  and  _641
REMARK  250  A    between atoms: _643  and  _645
REMARK  251  A    between atoms: _645  and  _646
REMARK  252  A    between atoms: _645  and  _648
REMARK  253  A    between atoms: _648  and  _649
REMARK  254  A    between atoms: _654  and  _655
REMARK  255  A    between atoms: _657  and  _659
REMARK  256  A    between atoms: _659  and  _660
REMARK  257  A    between atoms: _659  and  _662
REMARK  258  A    between atoms: _665  and  _667
REMARK  259  A    between atoms: _667  and  _668
REMARK  260  A    between atoms: _667  and  _670
REMARK  261  A    between atoms: _670  and  _671
REMARK  262  A    between atoms: _676  and  _678
REMARK  263  A    between atoms: _678  and  _679
REMARK  264  A    between atoms: _682  and  _684
REMARK  265  A    between atoms: _684  and  _685
REMARK  266  A    between atoms: _684  and  _687
REMARK  267  A    between atoms: _687  and  _688
REMARK  268  A    between atoms: _688  and  _689
REMARK  269  A    between atoms: _689  and  _690
REMARK  270  A    between atoms: _699  and  _701
REMARK  271  A    between atoms: _701  and  _702
REMARK  272  A    between atoms: _701  and  _704
REMARK  273  A    between atoms: _704  and  _705
REMARK  274  A    between atoms: _708  and  _710
REMARK  275  A    between atoms: _710  and  _711
REMARK  276  A    between atoms: _710  and  _713
REMARK  277  A    between atoms: _713  and  _714
REMARK  278  A    between atoms: _717  and  _719
REMARK  279  A    between atoms: _719  and  _720
REMARK  280  A    between atoms: _719  and  _722
REMARK  281  A    between atoms: _722  and  _723
REMARK                            x       y       z     vdW  Elec       q    Type
REMARK                         _______ _______ _______ _____ _____    ______ ____
ROOT
ATOM      1  CA  ASN A   2      -6.999  16.986   9.570  0.00  0.00    +0.158 C 
ENDROOT
BRANCH   1   3
ATOM      2  C   TYR A   1      -7.396  18.591   7.823  0.00  0.00    +0.239 C 
ATOM      3  N   ASN A   2      -6.543  18.010   8.659  0.00  0.00    -0.297 N 
ATOM      4  H   ASN A   2      -5.542  18.294   8.658  0.00  0.00    +0.150 HD
ATOM      5  O   TYR A   1      -8.611  18.272   7.782  0.00  0.00    -0.274 OA
BRANCH   2   6
ATOM      6  CA  TYR A   1      -6.887  19.624   6.818  0.00  0.00    +0.149 C 
BRANCH   6   7
ATOM      7  N   TYR A   1      -7.995  19.743   5.876  0.00  0.00    -0.238 NA
ATOM      8  H   TYR A   1      -8.626  20.568   5.932  0.00  0.00    +0.142 HD
ENDBRANCH   6   7
BRANCH   6   9
ATOM      9  CB  TYR A   1      -6.597  20.970   7.479  0.00  0.00    +0.053 C 
BRANCH   9  10
ATOM     10  CG  TYR A   1      -5.426  20.932   8.443  0.00  0.00    -0.020 A 
ATOM     11  CD2 TYR A   1      -5.617  21.272   9.779  0.00  0.00    -0.001 A 
ATOM     12  CE2 TYR A   1      -4.551  21.242  10.680  0.00  0.00    +0.036 A 
ATOM     13  CZ  TYR A   1      -3.299  20.904  10.224  0.00  0.00    +0.134 A 
ATOM     14  CE1 TYR A   1      -3.093  20.591   8.901  0.00  0.00    +0.036 A 
ATOM     15  CD1 TYR A   1      -4.151  20.587   8.001  0.00  0.00    -0.001 A 
BRANCH  13  16
ATOM     16  OH  TYR A   1      -2.247  20.889  11.137  0.00  0.00    -0.506 OA
ATOM     17  HH  TYR A   1      -1.412  20.630  10.672  0.00  0.00    +0.292 HD
ENDBRANCH  13  16
ENDBRANCH   9  10
ENDBRANCH   6   9
ENDBRANCH   2   6
ENDBRANCH   1   3
BRANCH   1  18
ATOM     18  C   ASN A   2      -7.330  17.483  10.970  0.00  0.00    +0.241 C 
ATOM     19  O   ASN A   2      -6.922  16.908  11.975  0.00  0.00    -0.273 OA
ATOM     20  N   ASN A   3      -8.118  18.545  11.065  0.00  0.00    -0.297 N 
ATOM     21  H   ASN A   3      -8.304  19.076  10.191  0.00  0.00    +0.150 HD
BRANCH  20  22
ATOM     22  CA  ASN A   3      -8.743  19.031  12.277  0.00  0.00    +0.158 C 
BRANCH  22  23
ATOM     23  C   ASN A   3     -10.249  19.020  11.917  0.00  0.00    +0.241 C 
ATOM     24  N   MET A   4     -11.086  18.253  12.578  0.00  0.00    -0.298 N 
ATOM     25  H   MET A   4     -10.755  17.683  13.382  0.00  0.00    +0.150 HD
ATOM     26  O   ASN A   3     -10.546  19.690  10.912  0.00  0.00    -0.273 OA
BRANCH  24  27
ATOM     27  CA  MET A   4     -12.502  18.210  12.165  0.00  0.00    +0.138 C 
BRANCH  27  28
ATOM     28  C   MET A   4     -13.379  19.003  13.140  0.00  0.00    +0.227 C 
ATOM     29  O   MET A   4     -13.172  18.977  14.347  0.00  0.00    -0.286 OA
ENDBRANCH  27  28
BRANCH  27  30
ATOM     30  CB  MET A   4     -12.980  16.784  12.047  0.00  0.00    +0.039 C 
BRANCH  30  31
ATOM     31  CG  MET A   4     -12.494  15.883  10.947  0.00  0.00    +0.060 C 
BRANCH  31  32
ATOM     32  SD  MET A   4     -13.200  16.296   9.334  0.00  0.00    -0.139 S 
ATOM     33  CE  MET A   4     -12.162  17.625   8.760  0.00  0.00    +0.069 C 
ENDBRANCH  31  32
ENDBRANCH  30  31
ENDBRANCH  27  30
ENDBRANCH  24  27
ENDBRANCH  22  23
BRANCH  22  34
ATOM     34  CB  ASN A   3      -8.348  20.434  12.728  0.00  0.00    +0.114 C 
BRANCH  34  35
ATOM     35  CG  ASN A   3      -7.026  20.474  13.484  0.00  0.00    +0.222 C 
ATOM     36  OD1 ASN A   3      -6.572  19.416  13.950  0.00  0.00    -0.275 OA
ATOM     37  ND2 ASN A   3      -6.416  21.663  13.588  0.00  0.00    -0.329 N 
ATOM     38 HD21 ASN A   3      -5.505  21.738  14.084  0.00  0.00    +0.145 HD
ATOM     39 HD22 ASN A   3      -6.854  22.510  13.173  0.00  0.00    +0.145 HD
ENDBRANCH  34  35
ENDBRANCH  22  34
ENDBRANCH  20  22
ENDBRANCH   1  18
BRANCH   1  40
ATOM     40  CB  ASN A   2      -6.050  15.783   9.602  0.00  0.00    +0.114 C 
BRANCH  40  41
ATOM     41  CG  ASN A   2      -4.623  16.141   9.944  0.00  0.00    +0.222 C 
ATOM     42  ND2 ASN A   2      -3.847  15.082  10.193  0.00  0.00    -0.329 N 
ATOM     43 HD21 ASN A   2      -2.843  15.217  10.430  0.00  0.00    +0.145 HD
ATOM     44 HD22 ASN A   2      -4.247  14.123  10.150  0.00  0.00    +0.145 HD
ATOM     45  OD1 ASN A   2      -4.230  17.307   9.974  0.00  0.00    -0.275 OA
ENDBRANCH  40  41
ENDBRANCH   1  40
TORSDOF 18
REMARK  Name = ../refined-set-2016/1qka/1qka_pocket.pdb
REMARK  281 active torsions:
REMARK  status: ('A' for Active; 'I' for Inactive)
REMARK    1  A    between atoms: _1  and  _3
REMARK    2  A    between atoms: _3  and  _4
REMARK    3  A    between atoms: _3  and  _6
REMARK    4  A    between atoms: _6  and  _7
REMARK    5  A    between atoms: _12  and  _14
REMARK    6  A    between atoms: _14  and  _15
REMARK    7  A    between atoms: _17  and  _19
REMARK    8  A    between atoms: _19  and  _20
REMARK    9  A    between atoms: _19  and  _22
REMARK   10  A    between atoms: _22  and  _23
REMARK   11  A    between atoms: _25  and  _27
REMARK   12  A    between atoms: _27  and  _28
REMARK   13  A    between atoms: _27  and  _30
REMARK   14  A    between atoms: _30  and  _31
REMARK   15  A    between atoms: _31  and  _32
REMARK   16  A    between atoms: _37  and  _39
REMARK   17  A    between atoms: _39  and  _40
REMARK   18  A    between atoms: _39  and  _42
REMARK   19  A    between atoms: _42  and  _43
REMARK   20  A    between atoms: _46  and  _48
REMARK   21  A    between atoms: _48  and  _49
REMARK   22  A    between atoms: _48  and  _51
REMARK   23  A    between atoms: _51  and  _52
REMARK   24  A    between atoms: _52  and  _53
REMARK   25  A    between atoms: _56  and  _58
REMARK   26  A    between atoms: _58  and  _59
REMARK   27  A    between atoms: _61  and  _63
REMARK   28  A    between atoms: _63  and  _64
REMARK   29  A    between atoms: _63  and  _66
REMARK   30  A    between atoms: _70  and  _71
REMARK   31  A    between atoms: _76  and  _78
REMARK   32  A    between atoms: _78  and  _79
REMARK   33  A    between atoms: _78  and  _81
REMARK   34  A    between atoms: _81  and  _82
REMARK   35  A    between atoms: _82  and  _83
REMARK   36  A    between atoms: _86  and  _88
REMARK   37  A    between atoms: _88  and  _89
REMARK   38  A    between atoms: _88  and  _91
REMARK   39  A    between atoms: _91  and  _92
REMARK   40  A    between atoms: _94  and  _96
REMARK   41  A    between atoms: _96  and  _97
REMARK   42  A    between atoms: _96  and  _99
REMARK   43  A    between atoms: _99  and  _100
REMARK   44  A    between atoms: _105  and  _107
REMARK   45  A    between atoms: _107  and  _108
REMARK   46  A    between atoms: _107  and  _110
REMARK   47  A    between atoms: _110  and  _111
REMARK   48  A    between atoms: _111  and  _112
REMARK   49  A    between atoms: _112  and  _113
REMARK   50  A    between atoms: _123  and  _124
REMARK   51  A    between atoms: _129  and  _131
REMARK   52  A    between atoms: _131  and  _132
REMARK   53  A    between atoms: _131  and  _134
REMARK   54  A    between atoms: _134  and  _135
REMARK   55  A    between atoms: _140  and  _141
REMARK   56  A    between atoms: _143  and  _145
REMARK   57  A    between atoms: _145  and  _146
REMARK   58  A    between atoms: _145  and  _148
REMARK   59  A    between atoms: _148  and  _149
REMARK   60  A    between atoms: _154  and  _155
REMARK   61  A    between atoms: _157  and  _159
REMARK   62  A    between atoms: _159  and  _160
REMARK   63  A    between atoms: _159  and  _162
REMARK   64  A    between atoms: _162  and  _163
REMARK   65  A    between atoms: _168  and  _169
REMARK   66  A    between atoms: _171  and  _173
REMARK   67  A    between atoms: _173  and  _174
REMARK   68  A    between atoms: _173  and  _176
REMARK   69  A    between atoms: _179  and  _181
REMARK   70  A    between atoms: _181  and  _182
REMARK   71  A    between atoms: _181  and  _184
REMARK   72  A    between atoms: _184  and  _185
REMARK   73  A    between atoms: _191  and  _192
REMARK   74  A    between atoms: _197  and  _199
REMARK   75  A    between atoms: _199  and  _200
REMARK   76  A    between atoms: _199  and  _202
REMARK   77  A    between atoms: _202  and  _203
REMARK   78  A    between atoms: _205  and  _207
REMARK   79  A    between atoms: _207  and  _208
REMARK   80  A    between atoms: _207  and  _210
REMARK   81  A    between atoms: _210  and  _211
REMARK   82  A    between atoms: _211  and  _212
REMARK   83  A    between atoms: _215  and  _217
REMARK   84  A    between atoms: _217  and  _218
REMARK   85  A    between atoms: _217  and  _220
REMARK   86  A    between atoms: _220  and  _221
REMARK   87  A    between atoms: _226  and  _227
REMARK   88  A    between atoms: _229  and  _231
REMARK   89  A    between atoms: _231  and  _232
REMARK   90  A    between atoms: _231  and  _234
REMARK   91  A    between atoms: _234  and  _235
REMARK   92  A    between atoms: _240  and  _242
REMARK   93  A    between atoms: _242  and  _243
REMARK   94  A    between atoms: _242  and  _245
REMARK   95  A    between atoms: _245  and  _246
REMARK   96  A    between atoms: _251  and  _253
REMARK   97  A    between atoms: _253  and  _254
REMARK   98  A    between atoms: _253  and  _256
REMARK   99  A    between atoms: _256  and  _257
REMARK  100  A    between atoms: _257  and  _258
REMARK  101  A    between atoms: _260  and  _262
REMARK  102  A    between atoms: _262  and  _263
REMARK  103  A    between atoms: _262  and  _265
REMARK  104  A    between atoms: _265  and  _266
REMARK  105  A    between atoms: _271  and  _272
REMARK  106  A    between atoms: _274  and  _276
REMARK  107  A    between atoms: _276  and  _277
REMARK  108  A    between atoms: _276  and  _279
REMARK  109  A    between atoms: _279  and  _280
REMARK  110  A    between atoms: _283  and  _285
REMARK  111  A    between atoms: _285  and  _286
REMARK  112  A    between atoms: _285  and  _288
REMARK  113  A    between atoms: _288  and  _289
REMARK  114  A    between atoms: _289  and  _497
REMARK  115  A    between atoms: _290  and  _292
REMARK  116  A    between atoms: _292  and  _293
REMARK  117  A    between atoms: _292  and  _295
REMARK  118  A    between atoms: _295  and  _296
REMARK  119  A    between atoms: _299  and  _301
REMARK  120  A    between atoms: _301  and  _302
REMARK  121  A    between atoms: _301  and  _304
REMARK  122  A    between atoms: _304  and  _305
REMARK  123  A    between atoms: _310  and  _311
REMARK  124  A    between atoms: _313  and  _315
REMARK  125  A    between atoms: _315  and  _316
REMARK  126  A    between atoms: _315  and  _318
REMARK  127  A    between atoms: _318  and  _319
REMARK  128  A    between atoms: _324  and  _325
REMARK  129  A    between atoms: _327  and  _329
REMARK  130  A    between atoms: _329  and  _330
REMARK  131  A    between atoms: _329  and  _332
REMARK  132  A    between atoms: _332  and  _333
REMARK  133  A    between atoms: _333  and  _334
REMARK  134  A    between atoms: _337  and  _339
REMARK  135  A    between atoms: _339  and  _340
REMARK  136  A    between atoms: _339  and  _342
REMARK  137  A    between atoms: _342  and  _343
REMARK  138  A    between atoms: _348  and  _349
REMARK  139  A    between atoms: _351  and  _353
REMARK  140  A    between atoms: _353  and  _354
REMARK  141  A    between atoms: _353  and  _356
REMARK  142  A    between atoms: _356  and  _357
REMARK  143  A    between atoms: _362  and  _364
REMARK  144  A    between atoms: _364  and  _365
REMARK  145  A    between atoms: _364  and  _367
REMARK  146  A    between atoms: _367  and  _368
REMARK  147  A    between atoms: _371  and  _373
REMARK  148  A    between atoms: _373  and  _374
REMARK  149  A    between atoms: _373  and  _376
REMARK  150  A    between atoms: _376  and  _377
REMARK  151  A    between atoms: _382  and  _384
REMARK  152  A    between atoms: _384  and  _385
REMARK  153  A    between atoms: _384  and  _387
REMARK  154  A    between atoms: _387  and  _388
REMARK  155  A    between atoms: _398  and  _400
REMARK  156  A    between atoms: _400  and  _401
REMARK  157  A    between atoms: _400  and  _403
REMARK  158  A    between atoms: _403  and  _404
REMARK  159  A    between atoms: _410  and  _412
REMARK  160  A    between atoms: _412  and  _413
REMARK  161  A    between atoms: _412  and  _415
REMARK  162  A    between atoms: _415  and  _416
REMARK  163  A    between atoms: _419  and  _421
REMARK  164  A    between atoms: _421  and  _422
REMARK  165  A    between atoms: _421  and  _424
REMARK  166  A    between atoms: _424  and  _425
REMARK  167  A    between atoms: _425  and  _426
REMARK  168  A    between atoms: _426  and  _427
REMARK  169  A    between atoms: _436  and  _438
REMARK  170  A    between atoms: _438  and  _439
REMARK  171  A    between atoms: _438  and  _441
REMARK  172  A    between atoms: _441  and  _442
REMARK  173  A    between atoms: _447  and  _449
REMARK  174  A    between atoms: _449  and  _450
REMARK  175  A    between atoms: _449  and  _452
REMARK  176  A    between atoms: _452  and  _453
REMARK  177  A    between atoms: _453  and  _454
REMARK  178  A    between atoms: _454  and  _455
REMARK  179  A    between atoms: _464  and  _466
REMARK  180  A    between atoms: _466  and  _467
REMARK  181  A    between atoms: _470  and  _472
REMARK  182  A    between atoms: _472  and  _473
REMARK  183  A    between atoms: _475  and  _477
REMARK  184  A    between atoms: _477  and  _478
REMARK  185  A    between atoms: _477  and  _480
REMARK  186  A    between atoms: _480  and  _481
REMARK  187  A    between atoms: _491  and  _493
REMARK  188  A    between atoms: _493  and  _494
REMARK  189  A    between atoms: _493  and  _496
REMARK  190  A    between atoms: _496  and  _497
REMARK  191  A    between atoms: _498  and  _500
REMARK  192  A    between atoms: _500  and  _501
REMARK  193  A    between atoms: _504  and  _506
REMARK  194  A    between atoms: _506  and  _507
REMARK  195  A    between atoms: _506  and  _509
REMARK  196  A    between atoms: _509  and  _510
REMARK  197  A    between atoms: _513  and  _515
REMARK  198  A    between atoms: _515  and  _516
REMARK  199  A    between atoms: _515  and  _518
REMARK  200  A    between atoms: _518  and  _519
REMARK  201  A    between atoms: _524  and  _525
REMARK  202  A    between atoms: _527  and  _529
REMARK  203  A    between atoms: _529  and  _530
REMARK  204  A    between atoms: _529  and  _532
REMARK  205  A    between atoms: _532  and  _533
REMARK  206  A    between atoms: _535  and  _537
REMARK  207  A    between atoms: _537  and  _538
REMARK  208  A    between atoms: _537  and  _540
REMARK  209  A    between atoms: _540  and  _541
REMARK  210  A    between atoms: _547  and  _549
REMARK  211  A    between atoms: _549  and  _550
REMARK  212  A    between atoms: _549  and  _552
REMARK  213  A    between atoms: _552  and  _553
REMARK  214  A    between atoms: _556  and  _558
REMARK  215  A    between atoms: _558  and  _559
REMARK  216  A    between atoms: _558  and  _561
REMARK  217  A    between atoms: _561  and  _562
REMARK  218  A    between atoms: _562  and  _563
REMARK  219  A    between atoms: _565  and  _567
REMARK  220  A    between atoms: _567  and  _568
REMARK  221  A    between atoms: _567  and  _570
REMARK  222  A    between atoms: _570  and  _571
REMARK  223  A    between atoms: _573  and  _575
REMARK  224  A    between atoms: _575  and  _576
REMARK  225  A    between atoms: _575  and  _578
REMARK  226  A    between atoms: _578  and  _579
REMARK  227  A    between atoms: _581  and  _583
REMARK  228  A    between atoms: _583  and  _584
REMARK  229  A    between atoms: _583  and  _586
REMARK  230  A    between atoms: _586  and  _587
REMARK  231  A    between atoms: _592  and  _594
REMARK  232  A    between atoms: _594  and  _595
REMARK  233  A    between atoms: _594  and  _597
REMARK  234  A    between atoms: _597  and  _598
REMARK  235  A    between atoms: _603  and  _605
REMARK  236  A    between atoms: _605  and  _606
REMARK  237  A    between atoms: _605  and  _608
REMARK  238  A    between atoms: _608  and  _609
REMARK  239  A    between atoms: _612  and  _614
REMARK  240  A    between atoms: _614  and  _615
REMARK  241  A    between atoms: _618  and  _620
REMARK  242  A    between atoms: _620  and  _621
REMARK  243  A    between atoms: _620  and  _623
REMARK  244  A    between atoms: _623  and  _624
REMARK  245  A    between atoms: _629  and  _631
REMARK  246  A    between atoms: _631  and  _632
REMARK  247  A    between atoms: _631  and  _634
REMARK  248  A    between atoms: _634  and  _635
REMARK  249  A    between atoms: _640  and  _641
REMARK  250  A    between atoms: _643  and  _645
REMARK  251  A    between atoms: _645  and  _646
REMARK  252  A    between atoms: _645  and  _648
REMARK  253  A    between atoms: _648  and  _649
REMARK  254  A    between atoms: _654  and  _655
REMARK  255  A    between atoms: _657  and  _659
REMARK  256  A    between atoms: _659  and  _660
REMARK  257  A    between atoms: _659  and  _662
REMARK  258  A    between atoms: _665  and  _667
REMARK  259  A    between atoms: _667  and  _668
REMARK  260  A    between atoms: _667  and  _670
REMARK  261  A    between atoms: _670  and  _671
REMARK  262  A    between atoms: _676  and  _678
REMARK  263  A    between atoms: _678  and  _679
REMARK  264  A    between atoms: _682  and  _684
REMARK  265  A    between atoms: _684  and  _685
REMARK  266  A    between atoms: _684  and  _687
REMARK  267  A    between atoms: _687  and  _688
REMARK  268  A    between atoms: _688  and  _689
REMARK  269  A    between atoms: _689  and  _690
REMARK  270  A    between atoms: _699  and  _701
REMARK  271  A    between atoms: _701  and  _702
REMARK  272  A    between atoms: _701  and  _704
REMARK  273  A    between atoms: _704  and  _705
REMARK  274  A    between atoms: _708  and  _710
REMARK  275  A    between atoms: _710  and  _711
REMARK  276  A    between atoms: _710  and  _713
REMARK  277  A    between atoms: _713  and  _714
REMARK  278  A    between atoms: _717  and  _719
REMARK  279  A    between atoms: _719  and  _720
REMARK  280  A    between atoms: _719  and  _722
REMARK  281  A    between atoms: _722  and  _723
REMARK                            x       y       z     vdW  Elec       q    Type
REMARK                         _______ _______ _______ _____ _____    ______ ____
ROOT
ATOM      1  CA  CYS A   5       3.156  14.101  16.262  0.00  0.00    +0.160 C 
ENDROOT
BRANCH   1   2
ATOM      2  C   CYS A   5       4.573  13.540  15.994  0.00  0.00    +0.242 C 
ATOM      3  N   ALA A   6       4.678  12.234  15.938  0.00  0.00    -0.297 N 
ATOM      4  H   ALA A   6       3.833  11.639  16.052  0.00  0.00    +0.150 HD
ATOM      5  O   CYS A   5       5.522  14.322  15.818  0.00  0.00    -0.273 OA
BRANCH   3   6
ATOM      6  CA  ALA A   6       5.987  11.613  15.715  0.00  0.00    +0.149 C 
ATOM      7  CB  ALA A   6       5.827  10.103  15.630  0.00  0.00    +0.031 C 
BRANCH   6   8
ATOM      8  C   ALA A   6       6.642  12.073  14.410  0.00  0.00    +0.241 C 
ATOM      9  N   ASP A   7       7.969  12.159  14.453  0.00  0.00    -0.297 N 
ATOM     10  H   ASP A   7       8.450  12.000  15.361  0.00  0.00    +0.150 HD
ATOM     11  O   ALA A   6       5.959  12.285  13.403  0.00  0.00    -0.273 OA
BRANCH   9  12
ATOM     12  CA  ASP A   7       8.775  12.467  13.278  0.00  0.00    +0.160 C 
BRANCH  12  13
ATOM     13  C   ASP A   7       9.350  11.161  12.731  0.00  0.00    +0.241 C 
ATOM     14  N   TYR A   8       9.503  10.206  13.637  0.00  0.00    -0.298 N 
ATOM     15  H   TYR A   8       9.308  10.423  14.635  0.00  0.00    +0.150 HD
ATOM     16  O   ASP A   7       9.715  11.054  11.557  0.00  0.00    -0.273 OA
BRANCH  14  17
ATOM     17  CA  TYR A   8       9.938   8.854  13.275  0.00  0.00    +0.141 C 
BRANCH  17  18
ATOM     18  C   TYR A   8       9.215   7.937  14.268  0.00  0.00    +0.227 C 
ATOM     19  O   TYR A   8       8.944   8.363  15.402  0.00  0.00    -0.286 OA
ENDBRANCH  17  18
BRANCH  17  20
ATOM     20  CB  TYR A   8      11.445   8.688  13.230  0.00  0.00    +0.054 C 
BRANCH  20  21
ATOM     21  CG  TYR A   8      12.197   9.045  14.483  0.00  0.00    -0.020 A 
ATOM     22  CD2 TYR A   8      12.571   8.083  15.417  0.00  0.00    -0.001 A 
ATOM     23  CE2 TYR A   8      13.252   8.467  16.587  0.00  0.00    +0.036 A 
ATOM     24  CZ  TYR A   8      13.584   9.781  16.789  0.00  0.00    +0.134 A 
ATOM     25  CE1 TYR A   8      13.216  10.743  15.878  0.00  0.00    +0.036 A 
ATOM     26  CD1 TYR A   8      12.517  10.362  14.737  0.00  0.00    -0.001 A 
BRANCH  24  27
ATOM     27  OH  TYR A   8      14.265  10.190  17.913  0.00  0.00    -0.506 OA
ATOM     28  HH  TYR A   8      13.735   9.966  18.718  0.00  0.00    +0.292 HD
ENDBRANCH  24  27
ENDBRANCH  20  21
ENDBRANCH  17  20
ENDBRANCH  14  17
ENDBRANCH  12  13
BRANCH  12  29
ATOM     29  CB  ASP A   7       9.920  13.419  13.612  0.00  0.00    +0.143 C 
BRANCH  29  30
ATOM     30  CG  ASP A   7       9.382  14.763  14.102  0.00  0.00    +0.367 C 
ATOM     31  OD2 ASP A   7       9.941  15.315  15.062  0.00  0.00    -0.246 OA
ATOM     32  OD1 ASP A   7       8.367  15.222  13.521  0.00  0.00    -0.246 OA
ENDBRANCH  29  30
ENDBRANCH  12  29
ENDBRANCH   9  12
ENDBRANCH   6   8
ENDBRANCH   3   6
ENDBRANCH   1   2
BRANCH   1  33
ATOM     33  N   CYS A   5       3.273  15.272  17.103  0.00  0.00    -0.296 N 
ATOM     34  C   TRP A   4       2.830  15.303  18.354  0.00  0.00    +0.241 C 
ATOM     35  O   TRP A   4       2.174  14.403  18.873  0.00  0.00    -0.273 OA
ATOM     36  H   CYS A   5       3.722  16.124  16.712  0.00  0.00    +0.150 HD
BRANCH  34  37
ATOM     37  CA  TRP A   4       3.078  16.577  19.187  0.00  0.00    +0.153 C 
BRANCH  37  38
ATOM     38  N   TRP A   4       1.738  16.975  19.681  0.00  0.00    -0.297 N 
ATOM     39  H   TRP A   4       1.129  16.297  20.182  0.00  0.00    +0.150 HD
ATOM     40  C   GLY A   3       1.337  18.226  19.465  0.00  0.00    +0.243 C 
ATOM     41  O   GLY A   3       2.082  19.128  19.025  0.00  0.00    -0.273 OA
BRANCH  40  42
ATOM     42  CA  GLY A   3      -0.115  18.545  19.857  0.00  0.00    +0.176 C 
BRANCH  42  43
ATOM     43  N   GLY A   3      -0.119  19.857  20.476  0.00  0.00    -0.295 N 
ATOM     44  C   ALA A   2      -0.727  20.061  21.645  0.00  0.00    +0.241 C 
ATOM     45  O   ALA A   2      -1.486  19.252  22.199  0.00  0.00    -0.273 OA
ATOM     46  H   GLY A   3       0.359  20.649  20.001  0.00  0.00    +0.150 HD
BRANCH  44  47
ATOM     47  CA  ALA A   2      -0.486  21.442  22.216  0.00  0.00    +0.149 C 
ATOM     48  CB  ALA A   2       0.738  21.397  23.131  0.00  0.00    +0.031 C 
BRANCH  47  49
ATOM     49  N   ALA A   2      -1.646  21.891  22.987  0.00  0.00    -0.297 N 
ATOM     50  C   ARG A   1      -1.683  23.172  23.351  0.00  0.00    +0.238 C 
ATOM     51  O   ARG A   1      -0.819  23.990  22.986  0.00  0.00    -0.274 OA
ATOM     52  H   ALA A   2      -2.412  21.235  23.241  0.00  0.00    +0.150 HD
BRANCH  50  53
ATOM     53  CA  ARG A   1      -2.887  23.633  24.183  0.00  0.00    +0.145 C 
BRANCH  53  54
ATOM     54  N   ARG A   1      -2.467  24.926  24.757  0.00  0.00    -0.238 NA
ATOM     55  H   ARG A   1      -2.931  25.818  24.491  0.00  0.00    +0.142 HD
ENDBRANCH  53  54
BRANCH  53  56
ATOM     56  CB  ARG A   1      -4.120  23.711  23.304  0.00  0.00    +0.030 C 
BRANCH  56  57
ATOM     57  CG  ARG A   1      -3.791  24.481  22.030  0.00  0.00    +0.045 C 
BRANCH  57  58
ATOM     58  CD  ARG A   1      -4.289  23.852  20.779  0.00  0.00    +0.174 C 
BRANCH  58  59
ATOM     59  NE  ARG A   1      -4.059  22.472  20.427  0.00  0.00    -0.265 N 
ATOM     60  HE  ARG A   1      -4.642  21.779  20.938  0.00  0.00    +0.259 HD
ATOM     61  CZ  ARG A   1      -3.218  21.964  19.553  0.00  0.00    +0.342 C 
ATOM     62  NH2 ARG A   1      -3.174  20.642  19.352  0.00  0.00    -0.292 N 
ATOM     63 HH21 ARG A   1      -3.806  20.013  19.888  0.00  0.00    +0.255 HD
ATOM     64 HH22 ARG A   1      -2.508  20.243  18.660  0.00  0.00    +0.255 HD
ATOM     65  NH1 ARG A   1      -2.425  22.776  18.835  0.00  0.00    -0.292 N 
ATOM     66 HH11 ARG A   1      -2.476  23.806  18.970  0.00  0.00    +0.255 HD
ATOM     67 HH12 ARG A   1      -1.760  22.375  18.144  0.00  0.00    +0.255 HD
ENDBRANCH  58  59
ENDBRANCH  57  58
ENDBRANCH  56  57
ENDBRANCH  53  56
ENDBRANCH  50  53
ENDBRANCH  47  49
ENDBRANCH  44  47
ENDBRANCH  42  43
ENDBRANCH  40  42
ENDBRANCH  37  38
BRANCH  37  68
ATOM     68  CB  TRP A   4       4.167  16.286  20.211  0.00  0.00    +0.057 C 
BRANCH  68  69
ATOM     69  CG  TRP A   4       5.530  15.979  19.614  0.00  0.00    -0.002 A 
ATOM     70  CD1 TRP A   4       6.175  14.779  19.547  0.00  0.00    +0.068 A 
ATOM     71  NE1 TRP A   4       7.417  14.930  18.933  0.00  0.00    -0.352 N 
ATOM     72  HE1 TRP A   4       8.110  14.174  18.761  0.00  0.00    +0.166 HD
ATOM     73  CE2 TRP A   4       7.565  16.248  18.597  0.00  0.00    +0.056 A 
ATOM     74  CZ2 TRP A   4       8.638  16.879  17.982  0.00  0.00    +0.017 A 
ATOM     75  CH2 TRP A   4       8.539  18.232  17.795  0.00  0.00    +0.001 A 
ATOM     76  CZ3 TRP A   4       7.389  18.954  18.172  0.00  0.00    +0.000 A 
ATOM     77  CE3 TRP A   4       6.318  18.328  18.814  0.00  0.00    +0.001 A 
ATOM     78  CD2 TRP A   4       6.412  16.938  19.010  0.00  0.00    +0.013 A 
ENDBRANCH  68  69
ENDBRANCH  37  68
ENDBRANCH  34  37
ENDBRANCH   1  33
BRANCH   1  79
ATOM     79  CB  CYS A   5       2.549  14.424  14.899  0.00  0.00    +0.098 C 
BRANCH  79  80
ATOM     80  SG  CYS A   5       0.816  14.952  15.033  0.00  0.00    -0.080 S 
BRANCH  80  81
ATOM     81  SG  GLY A   3      -0.143  13.193  15.347  0.00  0.00    -0.080 S 
BRANCH  81  82
ATOM     82  CB  GLY A   3      -0.570  13.233  17.100  0.00  0.00    +0.098 C 
BRANCH  82  83
ATOM     83  CA  GLY A   3       0.167  12.216  17.999  0.00  0.00    +0.160 C 
BRANCH  83  84
ATOM     84  C   GLY A   3      -0.534  12.236  19.353  0.00  0.00    +0.242 C 
ATOM     85  N   TRP A   4      -0.151  13.169  20.191  0.00  0.00    -0.295 N 
ATOM     86  H   TRP A   4       0.600  13.834  19.917  0.00  0.00    +0.150 HD
ATOM     87  O   GLY A   3      -1.493  11.454  19.530  0.00  0.00    -0.273 OA
BRANCH  85  88
ATOM     88  CA  TRP A   4      -0.776  13.279  21.510  0.00  0.00    +0.176 C 
BRANCH  88  89
ATOM     89  C   TRP A   4      -1.241  14.724  21.665  0.00  0.00    +0.243 C 
ATOM     90  N   CYS A   5      -2.470  14.888  22.123  0.00  0.00    -0.297 N 
ATOM     91  H   CYS A   5      -3.064  14.047  22.272  0.00  0.00    +0.150 HD
ATOM     92  O   TRP A   4      -0.438  15.625  21.393  0.00  0.00    -0.273 OA
BRANCH  90  93
ATOM     93  CA  CYS A   5      -3.028  16.204  22.428  0.00  0.00    +0.153 C 
BRANCH  93  94
ATOM     94  C   CYS A   5      -2.824  16.411  23.925  0.00  0.00    +0.241 C 
ATOM     95  O   CYS A   5      -3.110  15.492  24.711  0.00  0.00    -0.273 OA
ATOM     96  N   ALA A   6      -2.271  17.543  24.343  0.00  0.00    -0.298 N 
ATOM     97  H   ALA A   6      -1.990  18.275  23.660  0.00  0.00    +0.150 HD
BRANCH  96  98
ATOM     98  CA  ALA A   6      -2.062  17.747  25.780  0.00  0.00    +0.141 C 
BRANCH  98  99
ATOM     99  C   ALA A   6      -2.064  19.237  26.092  0.00  0.00    +0.227 C 
ATOM    100  O   ALA A   6      -2.043  20.028  25.150  0.00  0.00    -0.286 OA
ENDBRANCH  98  99
BRANCH  98 101
ATOM    101  CB  ALA A   6      -0.670  17.208  26.146  0.00  0.00    +0.054 C 
BRANCH 101 102
ATOM    102  CG  ALA A   6       0.557  17.683  25.407  0.00  0.00    -0.020 A 
ATOM    103  CD2 ALA A   6       1.452  18.553  26.023  0.00  0.00    -0.001 A 
ATOM    104  CE2 ALA A   6       2.611  18.996  25.394  0.00  0.00    +0.036 A 
ATOM    105  CZ  ALA A   6       2.874  18.567  24.109  0.00  0.00    +0.134 A 
ATOM    106  CE1 ALA A   6       2.009  17.688  23.459  0.00  0.00    +0.036 A 
ATOM    107  CD1 ALA A   6       0.860  17.267  24.104  0.00  0.00    -0.001 A 
BRANCH 105 108
ATOM    108  OH  ALA A   6       4.010  18.991  23.468  0.00  0.00    -0.506 OA
ATOM    109  HH  ALA A   6       4.045  18.593  22.562  0.00  0.00    +0.292 HD
ENDBRANCH 105 108
ENDBRANCH 101 102
ENDBRANCH  98 101
ENDBRANCH  96  98
ENDBRANCH  93  94
BRANCH  93 110
ATOM    110  CB  CYS A   5      -4.543  16.229  22.138  0.00  0.00    +0.055 C 
BRANCH 110 111
ATOM    111  CG  CYS A   5      -5.149  17.619  22.030  0.00  0.00    -0.020 A 
ATOM    112  CD2 CYS A   5      -5.370  18.452  23.111  0.00  0.00    -0.001 A 
ATOM    113  CE2 CYS A   5      -5.960  19.712  22.941  0.00  0.00    +0.036 A 
ATOM    114  CZ  CYS A   5      -6.353  20.111  21.679  0.00  0.00    +0.134 A 
ATOM    115  CE1 CYS A   5      -6.140  19.293  20.586  0.00  0.00    +0.036 A 
ATOM    116  CD1 CYS A   5      -5.540  18.048  20.762  0.00  0.00    -0.001 A 
BRANCH 114 117
ATOM    117  OH  CYS A   5      -6.923  21.343  21.460  0.00  0.00    -0.506 OA
ATOM    118  HH  CYS A   5      -7.017  21.820  22.322  0.00  0.00    +0.292 HD
ENDBRANCH 114 117
ENDBRANCH 110 111
ENDBRANCH  93 110
ENDBRANCH  90  93
ENDBRANCH  88  89
BRANCH  88 119
ATOM    119  CB  TRP A   4       0.211  12.910  22.627  0.00  0.00    +0.137 C 
ATOM    120  CG2 TRP A   4      -0.438  13.067  24.011  0.00  0.00    +0.034 C 
BRANCH 119 121
ATOM    121  OG1 TRP A   4       0.614  11.541  22.482  0.00  0.00    -0.382 OA
ATOM    122  HG1 TRP A   4       1.250  11.307  23.204  0.00  0.00    +0.210 HD
ENDBRANCH 119 121
ENDBRANCH  88 119
ENDBRANCH  85  88
ENDBRANCH  83  84
BRANCH  83 124
ATOM    123  C   ALA A   2       1.173  10.305  16.878  0.00  0.00    +0.241 C 
ATOM    124  N   GLY A   3       0.101  10.857  17.472  0.00  0.00    -0.296 N 
ATOM    125  H   GLY A   3      -0.781  10.312  17.556  0.00  0.00    +0.150 HD
ATOM    126  O   ALA A   2       2.264  10.884  16.761  0.00  0.00    -0.273 OA
BRANCH 123 127
ATOM    127  CA  ALA A   2       0.985   8.898  16.339  0.00  0.00    +0.149 C 
BRANCH 127 130
ATOM    128  C   ARG A   1      -1.242   8.717  15.410  0.00  0.00    +0.239 C 
ATOM    129  O   ARG A   1      -1.745   8.652  16.543  0.00  0.00    -0.274 OA
ATOM    130  N   ALA A   2       0.058   8.863  15.200  0.00  0.00    -0.297 N 
ATOM    131  H   ALA A   2       0.422   8.953  14.230  0.00  0.00    +0.150 HD
BRANCH 128 132
ATOM    132  CA  ARG A   1      -2.140   8.610  14.194  0.00  0.00    +0.149 C 
BRANCH 132 133
ATOM    133  N   ARG A   1      -3.023   7.454  14.383  0.00  0.00    -0.238 NA
ATOM    134  H   ARG A   1      -3.311   7.171  15.342  0.00  0.00    +0.142 HD
ENDBRANCH 132 133
BRANCH 132 135
ATOM    135  CB  ARG A   1      -3.042   9.844  14.040  0.00  0.00    +0.053 C 
BRANCH 135 136
ATOM    136  CG  ARG A   1      -2.468  11.097  13.429  0.00  0.00    -0.020 A 
ATOM    137  CD2 ARG A   1      -3.166  12.298  13.592  0.00  0.00    -0.001 A 
ATOM    138  CE2 ARG A   1      -2.718  13.486  13.058  0.00  0.00    +0.036 A 
ATOM    139  CZ  ARG A   1      -1.552  13.506  12.328  0.00  0.00    +0.134 A 
ATOM    140  CE1 ARG A   1      -0.832  12.344  12.155  0.00  0.00    +0.036 A 
ATOM    141  CD1 ARG A   1      -1.288  11.148  12.690  0.00  0.00    -0.001 A 
BRANCH 139 142
ATOM    142  OH  ARG A   1      -1.110  14.713  11.809  0.00  0.00    -0.506 OA
ATOM    143  HH  ARG A   1      -0.266  14.568  11.313  0.00  0.00    +0.292 HD
ENDBRANCH 139 142
ENDBRANCH 135 136
ENDBRANCH 132 135
ENDBRANCH 128 132
ENDBRANCH 127 130
BRANCH 127 144
ATOM    144  CB  ALA A   2       2.332   8.272  15.955  0.00  0.00    +0.029 C 
BRANCH 144 145
ATOM    145  CG  ALA A   2       2.273   6.739  15.873  0.00  0.00    +0.002 C 
ATOM    146  CD2 ALA A   2       2.006   6.150  17.251  0.00  0.00    +0.000 C 
ATOM    147  CD1 ALA A   2       3.566   6.170  15.292  0.00  0.00    +0.000 C 
ENDBRANCH 144 145
ENDBRANCH 127 144
ENDBRANCH 123 127
ENDBRANCH  83 124
ENDBRANCH  82  83
ENDBRANCH  81  82
ENDBRANCH  80  81
ENDBRANCH  79  80
ENDBRANCH   1  79
TORSDOF 57
REMARK  Name = ../refined-set-2016/1qka/1qka_pocket.pdb
REMARK  281 active torsions:
REMARK  status: ('A' for Active; 'I' for Inactive)
REMARK    1  A    between atoms: _1  and  _3
REMARK    2  A    between atoms: _3  and  _4
REMARK    3  A    between atoms: _3  and  _6
REMARK    4  A    between atoms: _6  and  _7
REMARK    5  A    between atoms: _12  and  _14
REMARK    6  A    between atoms: _14  and  _15
REMARK    7  A    between atoms: _17  and  _19
REMARK    8  A    between atoms: _19  and  _20
REMARK    9  A    between atoms: _19  and  _22
REMARK   10  A    between atoms: _22  and  _23
REMARK   11  A    between atoms: _25  and  _27
REMARK   12  A    between atoms: _27  and  _28
REMARK   13  A    between atoms: _27  and  _30
REMARK   14  A    between atoms: _30  and  _31
REMARK   15  A    between atoms: _31  and  _32
REMARK   16  A    between atoms: _37  and  _39
REMARK   17  A    between atoms: _39  and  _40
REMARK   18  A    between atoms: _39  and  _42
REMARK   19  A    between atoms: _42  and  _43
REMARK   20  A    between atoms: _46  and  _48
REMARK   21  A    between atoms: _48  and  _49
REMARK   22  A    between atoms: _48  and  _51
REMARK   23  A    between atoms: _51  and  _52
REMARK   24  A    between atoms: _52  and  _53
REMARK   25  A    between atoms: _56  and  _58
REMARK   26  A    between atoms: _58  and  _59
REMARK   27  A    between atoms: _61  and  _63
REMARK   28  A    between atoms: _63  and  _64
REMARK   29  A    between atoms: _63  and  _66
REMARK   30  A    between atoms: _70  and  _71
REMARK   31  A    between atoms: _76  and  _78
REMARK   32  A    between atoms: _78  and  _79
REMARK   33  A    between atoms: _78  and  _81
REMARK   34  A    between atoms: _81  and  _82
REMARK   35  A    between atoms: _82  and  _83
REMARK   36  A    between atoms: _86  and  _88
REMARK   37  A    between atoms: _88  and  _89
REMARK   38  A    between atoms: _88  and  _91
REMARK   39  A    between atoms: _91  and  _92
REMARK   40  A    between atoms: _94  and  _96
REMARK   41  A    between atoms: _96  and  _97
REMARK   42  A    between atoms: _96  and  _99
REMARK   43  A    between atoms: _99  and  _100
REMARK   44  A    between atoms: _105  and  _107
REMARK   45  A    between atoms: _107  and  _108
REMARK   46  A    between atoms: _107  and  _110
REMARK   47  A    between atoms: _110  and  _111
REMARK   48  A    between atoms: _111  and  _112
REMARK   49  A    between atoms: _112  and  _113
REMARK   50  A    between atoms: _123  and  _124
REMARK   51  A    between atoms: _129  and  _131
REMARK   52  A    between atoms: _131  and  _132
REMARK   53  A    between atoms: _131  and  _134
REMARK   54  A    between atoms: _134  and  _135
REMARK   55  A    between atoms: _140  and  _141
REMARK   56  A    between atoms: _143  and  _145
REMARK   57  A    between atoms: _145  and  _146
REMARK   58  A    between atoms: _145  and  _148
REMARK   59  A    between atoms: _148  and  _149
REMARK   60  A    between atoms: _154  and  _155
REMARK   61  A    between atoms: _157  and  _159
REMARK   62  A    between atoms: _159  and  _160
REMARK   63  A    between atoms: _159  and  _162
REMARK   64  A    between atoms: _162  and  _163
REMARK   65  A    between atoms: _168  and  _169
REMARK   66  A    between atoms: _171  and  _173
REMARK   67  A    between atoms: _173  and  _174
REMARK   68  A    between atoms: _173  and  _176
REMARK   69  A    between atoms: _179  and  _181
REMARK   70  A    between atoms: _181  and  _182
REMARK   71  A    between atoms: _181  and  _184
REMARK   72  A    between atoms: _184  and  _185
REMARK   73  A    between atoms: _191  and  _192
REMARK   74  A    between atoms: _197  and  _199
REMARK   75  A    between atoms: _199  and  _200
REMARK   76  A    between atoms: _199  and  _202
REMARK   77  A    between atoms: _202  and  _203
REMARK   78  A    between atoms: _205  and  _207
REMARK   79  A    between atoms: _207  and  _208
REMARK   80  A    between atoms: _207  and  _210
REMARK   81  A    between atoms: _210  and  _211
REMARK   82  A    between atoms: _211  and  _212
REMARK   83  A    between atoms: _215  and  _217
REMARK   84  A    between atoms: _217  and  _218
REMARK   85  A    between atoms: _217  and  _220
REMARK   86  A    between atoms: _220  and  _221
REMARK   87  A    between atoms: _226  and  _227
REMARK   88  A    between atoms: _229  and  _231
REMARK   89  A    between atoms: _231  and  _232
REMARK   90  A    between atoms: _231  and  _234
REMARK   91  A    between atoms: _234  and  _235
REMARK   92  A    between atoms: _240  and  _242
REMARK   93  A    between atoms: _242  and  _243
REMARK   94  A    between atoms: _242  and  _245
REMARK   95  A    between atoms: _245  and  _246
REMARK   96  A    between atoms: _251  and  _253
REMARK   97  A    between atoms: _253  and  _254
REMARK   98  A    between atoms: _253  and  _256
REMARK   99  A    between atoms: _256  and  _257
REMARK  100  A    between atoms: _257  and  _258
REMARK  101  A    between atoms: _260  and  _262
REMARK  102  A    between atoms: _262  and  _263
REMARK  103  A    between atoms: _262  and  _265
REMARK  104  A    between atoms: _265  and  _266
REMARK  105  A    between atoms: _271  and  _272
REMARK  106  A    between atoms: _274  and  _276
REMARK  107  A    between atoms: _276  and  _277
REMARK  108  A    between atoms: _276  and  _279
REMARK  109  A    between atoms: _279  and  _280
REMARK  110  A    between atoms: _283  and  _285
REMARK  111  A    between atoms: _285  and  _286
REMARK  112  A    between atoms: _285  and  _288
REMARK  113  A    between atoms: _288  and  _289
REMARK  114  A    between atoms: _289  and  _497
REMARK  115  A    between atoms: _290  and  _292
REMARK  116  A    between atoms: _292  and  _293
REMARK  117  A    between atoms: _292  and  _295
REMARK  118  A    between atoms: _295  and  _296
REMARK  119  A    between atoms: _299  and  _301
REMARK  120  A    between atoms: _301  and  _302
REMARK  121  A    between atoms: _301  and  _304
REMARK  122  A    between atoms: _304  and  _305
REMARK  123  A    between atoms: _310  and  _311
REMARK  124  A    between atoms: _313  and  _315
REMARK  125  A    between atoms: _315  and  _316
REMARK  126  A    between atoms: _315  and  _318
REMARK  127  A    between atoms: _318  and  _319
REMARK  128  A    between atoms: _324  and  _325
REMARK  129  A    between atoms: _327  and  _329
REMARK  130  A    between atoms: _329  and  _330
REMARK  131  A    between atoms: _329  and  _332
REMARK  132  A    between atoms: _332  and  _333
REMARK  133  A    between atoms: _333  and  _334
REMARK  134  A    between atoms: _337  and  _339
REMARK  135  A    between atoms: _339  and  _340
REMARK  136  A    between atoms: _339  and  _342
REMARK  137  A    between atoms: _342  and  _343
REMARK  138  A    between atoms: _348  and  _349
REMARK  139  A    between atoms: _351  and  _353
REMARK  140  A    between atoms: _353  and  _354
REMARK  141  A    between atoms: _353  and  _356
REMARK  142  A    between atoms: _356  and  _357
REMARK  143  A    between atoms: _362  and  _364
REMARK  144  A    between atoms: _364  and  _365
REMARK  145  A    between atoms: _364  and  _367
REMARK  146  A    between atoms: _367  and  _368
REMARK  147  A    between atoms: _371  and  _373
REMARK  148  A    between atoms: _373  and  _374
REMARK  149  A    between atoms: _373  and  _376
REMARK  150  A    between atoms: _376  and  _377
REMARK  151  A    between atoms: _382  and  _384
REMARK  152  A    between atoms: _384  and  _385
REMARK  153  A    between atoms: _384  and  _387
REMARK  154  A    between atoms: _387  and  _388
REMARK  155  A    between atoms: _398  and  _400
REMARK  156  A    between atoms: _400  and  _401
REMARK  157  A    between atoms: _400  and  _403
REMARK  158  A    between atoms: _403  and  _404
REMARK  159  A    between atoms: _410  and  _412
REMARK  160  A    between atoms: _412  and  _413
REMARK  161  A    between atoms: _412  and  _415
REMARK  162  A    between atoms: _415  and  _416
REMARK  163  A    between atoms: _419  and  _421
REMARK  164  A    between atoms: _421  and  _422
REMARK  165  A    between atoms: _421  and  _424
REMARK  166  A    between atoms: _424  and  _425
REMARK  167  A    between atoms: _425  and  _426
REMARK  168  A    between atoms: _426  and  _427
REMARK  169  A    between atoms: _436  and  _438
REMARK  170  A    between atoms: _438  and  _439
REMARK  171  A    between atoms: _438  and  _441
REMARK  172  A    between atoms: _441  and  _442
REMARK  173  A    between atoms: _447  and  _449
REMARK  174  A    between atoms: _449  and  _450
REMARK  175  A    between atoms: _449  and  _452
REMARK  176  A    between atoms: _452  and  _453
REMARK  177  A    between atoms: _453  and  _454
REMARK  178  A    between atoms: _454  and  _455
REMARK  179  A    between atoms: _464  and  _466
REMARK  180  A    between atoms: _466  and  _467
REMARK  181  A    between atoms: _470  and  _472
REMARK  182  A    between atoms: _472  and  _473
REMARK  183  A    between atoms: _475  and  _477
REMARK  184  A    between atoms: _477  and  _478
REMARK  185  A    between atoms: _477  and  _480
REMARK  186  A    between atoms: _480  and  _481
REMARK  187  A    between atoms: _491  and  _493
REMARK  188  A    between atoms: _493  and  _494
REMARK  189  A    between atoms: _493  and  _496
REMARK  190  A    between atoms: _496  and  _497
REMARK  191  A    between atoms: _498  and  _500
REMARK  192  A    between atoms: _500  and  _501
REMARK  193  A    between atoms: _504  and  _506
REMARK  194  A    between atoms: _506  and  _507
REMARK  195  A    between atoms: _506  and  _509
REMARK  196  A    between atoms: _509  and  _510
REMARK  197  A    between atoms: _513  and  _515
REMARK  198  A    between atoms: _515  and  _516
REMARK  199  A    between atoms: _515  and  _518
REMARK  200  A    between atoms: _518  and  _519
REMARK  201  A    between atoms: _524  and  _525
REMARK  202  A    between atoms: _527  and  _529
REMARK  203  A    between atoms: _529  and  _530
REMARK  204  A    between atoms: _529  and  _532
REMARK  205  A    between atoms: _532  and  _533
REMARK  206  A    between atoms: _535  and  _537
REMARK  207  A    between atoms: _537  and  _538
REMARK  208  A    between atoms: _537  and  _540
REMARK  209  A    between atoms: _540  and  _541
REMARK  210  A    between atoms: _547  and  _549
REMARK  211  A    between atoms: _549  and  _550
REMARK  212  A    between atoms: _549  and  _552
REMARK  213  A    between atoms: _552  and  _553
REMARK  214  A    between atoms: _556  and  _558
REMARK  215  A    between atoms: _558  and  _559
REMARK  216  A    between atoms: _558  and  _561
REMARK  217  A    between atoms: _561  and  _562
REMARK  218  A    between atoms: _562  and  _563
REMARK  219  A    between atoms: _565  and  _567
REMARK  220  A    between atoms: _567  and  _568
REMARK  221  A    between atoms: _567  and  _570
REMARK  222  A    between atoms: _570  and  _571
REMARK  223  A    between atoms: _573  and  _575
REMARK  224  A    between atoms: _575  and  _576
REMARK  225  A    between atoms: _575  and  _578
REMARK  226  A    between atoms: _578  and  _579
REMARK  227  A    between atoms: _581  and  _583
REMARK  228  A    between atoms: _583  and  _584
REMARK  229  A    between atoms: _583  and  _586
REMARK  230  A    between atoms: _586  and  _587
REMARK  231  A    between atoms: _592  and  _594
REMARK  232  A    between atoms: _594  and  _595
REMARK  233  A    between atoms: _594  and  _597
REMARK  234  A    between atoms: _597  and  _598
REMARK  235  A    between atoms: _603  and  _605
REMARK  236  A    between atoms: _605  and  _606
REMARK  237  A    between atoms: _605  and  _608
REMARK  238  A    between atoms: _608  and  _609
REMARK  239  A    between atoms: _612  and  _614
REMARK  240  A    between atoms: _614  and  _615
REMARK  241  A    between atoms: _618  and  _620
REMARK  242  A    between atoms: _620  and  _621
REMARK  243  A    between atoms: _620  and  _623
REMARK  244  A    between atoms: _623  and  _624
REMARK  245  A    between atoms: _629  and  _631
REMARK  246  A    between atoms: _631  and  _632
REMARK  247  A    between atoms: _631  and  _634
REMARK  248  A    between atoms: _634  and  _635
REMARK  249  A    between atoms: _640  and  _641
REMARK  250  A    between atoms: _643  and  _645
REMARK  251  A    between atoms: _645  and  _646
REMARK  252  A    between atoms: _645  and  _648
REMARK  253  A    between atoms: _648  and  _649
REMARK  254  A    between atoms: _654  and  _655
REMARK  255  A    between atoms: _657  and  _659
REMARK  256  A    between atoms: _659  and  _660
REMARK  257  A    between atoms: _659  and  _662
REMARK  258  A    between atoms: _665  and  _667
REMARK  259  A    between atoms: _667  and  _668
REMARK  260  A    between atoms: _667  and  _670
REMARK  261  A    between atoms: _670  and  _671
REMARK  262  A    between atoms: _676  and  _678
REMARK  263  A    between atoms: _678  and  _679
REMARK  264  A    between atoms: _682  and  _684
REMARK  265  A    between atoms: _684  and  _685
REMARK  266  A    between atoms: _684  and  _687
REMARK  267  A    between atoms: _687  and  _688
REMARK  268  A    between atoms: _688  and  _689
REMARK  269  A    between atoms: _689  and  _690
REMARK  270  A    between atoms: _699  and  _701
REMARK  271  A    between atoms: _701  and  _702
REMARK  272  A    between atoms: _701  and  _704
REMARK  273  A    between atoms: _704  and  _705
REMARK  274  A    between atoms: _708  and  _710
REMARK  275  A    between atoms: _710  and  _711
REMARK  276  A    between atoms: _710  and  _713
REMARK  277  A    between atoms: _713  and  _714
REMARK  278  A    between atoms: _717  and  _719
REMARK  279  A    between atoms: _719  and  _720
REMARK  280  A    between atoms: _719  and  _722
REMARK  281  A    between atoms: _722  and  _723
REMARK                            x       y       z     vdW  Elec       q    Type
REMARK                         _______ _______ _______ _____ _____    ______ ____
ROOT
ATOM      1  CA  GLU A   1       1.672  22.189  27.787  0.00  0.00    +0.134 C 
ENDROOT
BRANCH   1   2
ATOM      2  N   GLU A   1       0.285  21.889  27.532  0.00  0.00    -0.239 NA
ATOM      3  H   GLU A   1      -0.148  22.338  26.700  0.00  0.00    +0.142 HD
ENDBRANCH   1   2
BRANCH   1   4
ATOM      4  C   GLU A   1       1.761  23.246  28.901  0.00  0.00    +0.224 C 
ATOM      5  O   GLU A   1       1.241  24.360  28.767  0.00  0.00    -0.287 OA
ENDBRANCH   1   4
BRANCH   1   6
ATOM      6  CB  GLU A   1       2.352  22.766  26.544  0.00  0.00    +0.037 C 
BRANCH   6   7
ATOM      7  CG  GLU A   1       3.830  23.160  26.752  0.00  0.00    +0.116 C 
BRANCH   7   8
ATOM      8  CD  GLU A   1       4.345  23.610  25.394  0.00  0.00    +0.365 C 
ATOM      9  OE2 GLU A   1       4.125  24.777  25.027  0.00  0.00    -0.246 OA
ATOM     10  OE1 GLU A   1       4.916  22.742  24.705  0.00  0.00    -0.246 OA
ENDBRANCH   7   8
ENDBRANCH   6   7
ENDBRANCH   1   6
TORSDOF 5
REMARK  Name = ../refined-set-2016/1qka/1qka_pocket.pdb
REMARK  281 active torsions:
REMARK  status: ('A' for Active; 'I' for Inactive)
REMARK    1  A    between atoms: _1  and  _3
REMARK    2  A    between atoms: _3  and  _4
REMARK    3  A    between atoms: _3  and  _6
REMARK    4  A    between atoms: _6  and  _7
REMARK    5  A    between atoms: _12  and  _14
REMARK    6  A    between atoms: _14  and  _15
REMARK    7  A    between atoms: _17  and  _19
REMARK    8  A    between atoms: _19  and  _20
REMARK    9  A    between atoms: _19  and  _22
REMARK   10  A    between atoms: _22  and  _23
REMARK   11  A    between atoms: _25  and  _27
REMARK   12  A    between atoms: _27  and  _28
REMARK   13  A    between atoms: _27  and  _30
REMARK   14  A    between atoms: _30  and  _31
REMARK   15  A    between atoms: _31  and  _32
REMARK   16  A    between atoms: _37  and  _39
REMARK   17  A    between atoms: _39  and  _40
REMARK   18  A    between atoms: _39  and  _42
REMARK   19  A    between atoms: _42  and  _43
REMARK   20  A    between atoms: _46  and  _48
REMARK   21  A    between atoms: _48  and  _49
REMARK   22  A    between atoms: _48  and  _51
REMARK   23  A    between atoms: _51  and  _52
REMARK   24  A    between atoms: _52  and  _53
REMARK   25  A    between atoms: _56  and  _58
REMARK   26  A    between atoms: _58  and  _59
REMARK   27  A    between atoms: _61  and  _63
REMARK   28  A    between atoms: _63  and  _64
REMARK   29  A    between atoms: _63  and  _66
REMARK   30  A    between atoms: _70  and  _71
REMARK   31  A    between atoms: _76  and  _78
REMARK   32  A    between atoms: _78  and  _79
REMARK   33  A    between atoms: _78  and  _81
REMARK   34  A    between atoms: _81  and  _82
REMARK   35  A    between atoms: _82  and  _83
REMARK   36  A    between atoms: _86  and  _88
REMARK   37  A    between atoms: _88  and  _89
REMARK   38  A    between atoms: _88  and  _91
REMARK   39  A    between atoms: _91  and  _92
REMARK   40  A    between atoms: _94  and  _96
REMARK   41  A    between atoms: _96  and  _97
REMARK   42  A    between atoms: _96  and  _99
REMARK   43  A    between atoms: _99  and  _100
REMARK   44  A    between atoms: _105  and  _107
REMARK   45  A    between atoms: _107  and  _108
REMARK   46  A    between atoms: _107  and  _110
REMARK   47  A    between atoms: _110  and  _111
REMARK   48  A    between atoms: _111  and  _112
REMARK   49  A    between atoms: _112  and  _113
REMARK   50  A    between atoms: _123  and  _124
REMARK   51  A    between atoms: _129  and  _131
REMARK   52  A    between atoms: _131  and  _132
REMARK   53  A    between atoms: _131  and  _134
REMARK   54  A    between atoms: _134  and  _135
REMARK   55  A    between atoms: _140  and  _141
REMARK   56  A    between atoms: _143  and  _145
REMARK   57  A    between atoms: _145  and  _146
REMARK   58  A    between atoms: _145  and  _148
REMARK   59  A    between atoms: _148  and  _149
REMARK   60  A    between atoms: _154  and  _155
REMARK   61  A    between atoms: _157  and  _159
REMARK   62  A    between atoms: _159  and  _160
REMARK   63  A    between atoms: _159  and  _162
REMARK   64  A    between atoms: _162  and  _163
REMARK   65  A    between atoms: _168  and  _169
REMARK   66  A    between atoms: _171  and  _173
REMARK   67  A    between atoms: _173  and  _174
REMARK   68  A    between atoms: _173  and  _176
REMARK   69  A    between atoms: _179  and  _181
REMARK   70  A    between atoms: _181  and  _182
REMARK   71  A    between atoms: _181  and  _184
REMARK   72  A    between atoms: _184  and  _185
REMARK   73  A    between atoms: _191  and  _192
REMARK   74  A    between atoms: _197  and  _199
REMARK   75  A    between atoms: _199  and  _200
REMARK   76  A    between atoms: _199  and  _202
REMARK   77  A    between atoms: _202  and  _203
REMARK   78  A    between atoms: _205  and  _207
REMARK   79  A    between atoms: _207  and  _208
REMARK   80  A    between atoms: _207  and  _210
REMARK   81  A    between atoms: _210  and  _211
REMARK   82  A    between atoms: _211  and  _212
REMARK   83  A    between atoms: _215  and  _217
REMARK   84  A    between atoms: _217  and  _218
REMARK   85  A    between atoms: _217  and  _220
REMARK   86  A    between atoms: _220  and  _221
REMARK   87  A    between atoms: _226  and  _227
REMARK   88  A    between atoms: _229  and  _231
REMARK   89  A    between atoms: _231  and  _232
REMARK   90  A    between atoms: _231  and  _234
REMARK   91  A    between atoms: _234  and  _235
REMARK   92  A    between atoms: _240  and  _242
REMARK   93  A    between atoms: _242  and  _243
REMARK   94  A    between atoms: _242  and  _245
REMARK   95  A    between atoms: _245  and  _246
REMARK   96  A    between atoms: _251  and  _253
REMARK   97  A    between atoms: _253  and  _254
REMARK   98  A    between atoms: _253  and  _256
REMARK   99  A    between atoms: _256  and  _257
REMARK  100  A    between atoms: _257  and  _258
REMARK  101  A    between atoms: _260  and  _262
REMARK  102  A    between atoms: _262  and  _263
REMARK  103  A    between atoms: _262  and  _265
REMARK  104  A    between atoms: _265  and  _266
REMARK  105  A    between atoms: _271  and  _272
REMARK  106  A    between atoms: _274  and  _276
REMARK  107  A    between atoms: _276  and  _277
REMARK  108  A    between atoms: _276  and  _279
REMARK  109  A    between atoms: _279  and  _280
REMARK  110  A    between atoms: _283  and  _285
REMARK  111  A    between atoms: _285  and  _286
REMARK  112  A    between atoms: _285  and  _288
REMARK  113  A    between atoms: _288  and  _289
REMARK  114  A    between atoms: _289  and  _497
REMARK  115  A    between atoms: _290  and  _292
REMARK  116  A    between atoms: _292  and  _293
REMARK  117  A    between atoms: _292  and  _295
REMARK  118  A    between atoms: _295  and  _296
REMARK  119  A    between atoms: _299  and  _301
REMARK  120  A    between atoms: _301  and  _302
REMARK  121  A    between atoms: _301  and  _304
REMARK  122  A    between atoms: _304  and  _305
REMARK  123  A    between atoms: _310  and  _311
REMARK  124  A    between atoms: _313  and  _315
REMARK  125  A    between atoms: _315  and  _316
REMARK  126  A    between atoms: _315  and  _318
REMARK  127  A    between atoms: _318  and  _319
REMARK  128  A    between atoms: _324  and  _325
REMARK  129  A    between atoms: _327  and  _329
REMARK  130  A    between atoms: _329  and  _330
REMARK  131  A    between atoms: _329  and  _332
REMARK  132  A    between atoms: _332  and  _333
REMARK  133  A    between atoms: _333  and  _334
REMARK  134  A    between atoms: _337  and  _339
REMARK  135  A    between atoms: _339  and  _340
REMARK  136  A    between atoms: _339  and  _342
REMARK  137  A    between atoms: _342  and  _343
REMARK  138  A    between atoms: _348  and  _349
REMARK  139  A    between atoms: _351  and  _353
REMARK  140  A    between atoms: _353  and  _354
REMARK  141  A    between atoms: _353  and  _356
REMARK  142  A    between atoms: _356  and  _357
REMARK  143  A    between atoms: _362  and  _364
REMARK  144  A    between atoms: _364  and  _365
REMARK  145  A    between atoms: _364  and  _367
REMARK  146  A    between atoms: _367  and  _368
REMARK  147  A    between atoms: _371  and  _373
REMARK  148  A    between atoms: _373  and  _374
REMARK  149  A    between atoms: _373  and  _376
REMARK  150  A    between atoms: _376  and  _377
REMARK  151  A    between atoms: _382  and  _384
REMARK  152  A    between atoms: _384  and  _385
REMARK  153  A    between atoms: _384  and  _387
REMARK  154  A    between atoms: _387  and  _388
REMARK  155  A    between atoms: _398  and  _400
REMARK  156  A    between atoms: _400  and  _401
REMARK  157  A    between atoms: _400  and  _403
REMARK  158  A    between atoms: _403  and  _404
REMARK  159  A    between atoms: _410  and  _412
REMARK  160  A    between atoms: _412  and  _413
REMARK  161  A    between atoms: _412  and  _415
REMARK  162  A    between atoms: _415  and  _416
REMARK  163  A    between atoms: _419  and  _421
REMARK  164  A    between atoms: _421  and  _422
REMARK  165  A    between atoms: _421  and  _424
REMARK  166  A    between atoms: _424  and  _425
REMARK  167  A    between atoms: _425  and  _426
REMARK  168  A    between atoms: _426  and  _427
REMARK  169  A    between atoms: _436  and  _438
REMARK  170  A    between atoms: _438  and  _439
REMARK  171  A    between atoms: _438  and  _441
REMARK  172  A    between atoms: _441  and  _442
REMARK  173  A    between atoms: _447  and  _449
REMARK  174  A    between atoms: _449  and  _450
REMARK  175  A    between atoms: _449  and  _452
REMARK  176  A    between atoms: _452  and  _453
REMARK  177  A    between atoms: _453  and  _454
REMARK  178  A    between atoms: _454  and  _455
REMARK  179  A    between atoms: _464  and  _466
REMARK  180  A    between atoms: _466  and  _467
REMARK  181  A    between atoms: _470  and  _472
REMARK  182  A    between atoms: _472  and  _473
REMARK  183  A    between atoms: _475  and  _477
REMARK  184  A    between atoms: _477  and  _478
REMARK  185  A    between atoms: _477  and  _480
REMARK  186  A    between atoms: _480  and  _481
REMARK  187  A    between atoms: _491  and  _493
REMARK  188  A    between atoms: _493  and  _494
REMARK  189  A    between atoms: _493  and  _496
REMARK  190  A    between atoms: _496  and  _497
REMARK  191  A    between atoms: _498  and  _500
REMARK  192  A    between atoms: _500  and  _501
REMARK  193  A    between atoms: _504  and  _506
REMARK  194  A    between atoms: _506  and  _507
REMARK  195  A    between atoms: _506  and  _509
REMARK  196  A    between atoms: _509  and  _510
REMARK  197  A    between atoms: _513  and  _515
REMARK  198  A    between atoms: _515  and  _516
REMARK  199  A    between atoms: _515  and  _518
REMARK  200  A    between atoms: _518  and  _519
REMARK  201  A    between atoms: _524  and  _525
REMARK  202  A    between atoms: _527  and  _529
REMARK  203  A    between atoms: _529  and  _530
REMARK  204  A    between atoms: _529  and  _532
REMARK  205  A    between atoms: _532  and  _533
REMARK  206  A    between atoms: _535  and  _537
REMARK  207  A    between atoms: _537  and  _538
REMARK  208  A    between atoms: _537  and  _540
REMARK  209  A    between atoms: _540  and  _541
REMARK  210  A    between atoms: _547  and  _549
REMARK  211  A    between atoms: _549  and  _550
REMARK  212  A    between atoms: _549  and  _552
REMARK  213  A    between atoms: _552  and  _553
REMARK  214  A    between atoms: _556  and  _558
REMARK  215  A    between atoms: _558  and  _559
REMARK  216  A    between atoms: _558  and  _561
REMARK  217  A    between atoms: _561  and  _562
REMARK  218  A    between atoms: _562  and  _563
REMARK  219  A    between atoms: _565  and  _567
REMARK  220  A    between atoms: _567  and  _568
REMARK  221  A    between atoms: _567  and  _570
REMARK  222  A    between atoms: _570  and  _571
REMARK  223  A    between atoms: _573  and  _575
REMARK  224  A    between atoms: _575  and  _576
REMARK  225  A    between atoms: _575  and  _578
REMARK  226  A    between atoms: _578  and  _579
REMARK  227  A    between atoms: _581  and  _583
REMARK  228  A    between atoms: _583  and  _584
REMARK  229  A    between atoms: _583  and  _586
REMARK  230  A    between atoms: _586  and  _587
REMARK  231  A    between atoms: _592  and  _594
REMARK  232  A    between atoms: _594  and  _595
REMARK  233  A    between atoms: _594  and  _597
REMARK  234  A    between atoms: _597  and  _598
REMARK  235  A    between atoms: _603  and  _605
REMARK  236  A    between atoms: _605  and  _606
REMARK  237  A    between atoms: _605  and  _608
REMARK  238  A    between atoms: _608  and  _609
REMARK  239  A    between atoms: _612  and  _614
REMARK  240  A    between atoms: _614  and  _615
REMARK  241  A    between atoms: _618  and  _620
REMARK  242  A    between atoms: _620  and  _621
REMARK  243  A    between atoms: _620  and  _623
REMARK  244  A    between atoms: _623  and  _624
REMARK  245  A    between atoms: _629  and  _631
REMARK  246  A    between atoms: _631  and  _632
REMARK  247  A    between atoms: _631  and  _634
REMARK  248  A    between atoms: _634  and  _635
REMARK  249  A    between atoms: _640  and  _641
REMARK  250  A    between atoms: _643  and  _645
REMARK  251  A    between atoms: _645  and  _646
REMARK  252  A    between atoms: _645  and  _648
REMARK  253  A    between atoms: _648  and  _649
REMARK  254  A    between atoms: _654  and  _655
REMARK  255  A    between atoms: _657  and  _659
REMARK  256  A    between atoms: _659  and  _660
REMARK  257  A    between atoms: _659  and  _662
REMARK  258  A    between atoms: _665  and  _667
REMARK  259  A    between atoms: _667  and  _668
REMARK  260  A    between atoms: _667  and  _670
REMARK  261  A    between atoms: _670  and  _671
REMARK  262  A    between atoms: _676  and  _678
REMARK  263  A    between atoms: _678  and  _679
REMARK  264  A    between atoms: _682  and  _684
REMARK  265  A    between atoms: _684  and  _685
REMARK  266  A    between atoms: _684  and  _687
REMARK  267  A    between atoms: _687  and  _688
REMARK  268  A    between atoms: _688  and  _689
REMARK  269  A    between atoms: _689  and  _690
REMARK  270  A    between atoms: _699  and  _701
REMARK  271  A    between atoms: _701  and  _702
REMARK  272  A    between atoms: _701  and  _704
REMARK  273  A    between atoms: _704  and  _705
REMARK  274  A    between atoms: _708  and  _710
REMARK  275  A    between atoms: _710  and  _711
REMARK  276  A    between atoms: _710  and  _713
REMARK  277  A    between atoms: _713  and  _714
REMARK  278  A    between atoms: _717  and  _719
REMARK  279  A    between atoms: _719  and  _720
REMARK  280  A    between atoms: _719  and  _722
REMARK  281  A    between atoms: _722  and  _723
REMARK                            x       y       z     vdW  Elec       q    Type
REMARK                         _______ _______ _______ _____ _____    ______ ____
ROOT
ATOM      1  CG  TYR A   1       5.114  13.615  25.678  0.00  0.00    -0.020 A 
ATOM      2  CD2 TYR A   1       6.479  13.671  25.403  0.00  0.00    -0.001 A 
ATOM      3  CE2 TYR A   1       6.993  14.608  24.523  0.00  0.00    +0.036 A 
ATOM      4  CZ  TYR A   1       6.157  15.505  23.899  0.00  0.00    +0.134 A 
ATOM      5  CE1 TYR A   1       4.811  15.469  24.147  0.00  0.00    +0.036 A 
ATOM      6  CD1 TYR A   1       4.290  14.524  25.029  0.00  0.00    -0.001 A 
ENDROOT
BRANCH   4   7
ATOM      7  OH  TYR A   1       6.661  16.459  23.023  0.00  0.00    -0.506 OA
ATOM      8  HH  TYR A   1       7.306  17.037  23.502  0.00  0.00    +0.292 HD
ENDBRANCH   4   7
BRANCH   1   9
ATOM      9  CB  TYR A   1       4.546  12.597  26.643  0.00  0.00    +0.051 C 
BRANCH   9  10
ATOM     10  CA  TYR A   1       3.258  11.885  26.284  0.00  0.00    +0.137 C 
BRANCH  10  11
ATOM     11  N   TYR A   1       2.830  11.008  27.382  0.00  0.00    -0.239 NA
ATOM     12  H   TYR A   1       3.566  10.593  27.988  0.00  0.00    +0.142 HD
ENDBRANCH  10  11
BRANCH  10  13
ATOM     13  C   TYR A   1       3.428  11.048  25.022  0.00  0.00    +0.224 C 
ATOM     14  O   TYR A   1       2.731  11.203  24.020  0.00  0.00    -0.287 OA
ENDBRANCH  10  13
ENDBRANCH   9  10
ENDBRANCH   1   9
TORSDOF 5
REMARK  Name = ../refined-set-2016/1qka/1qka_pocket.pdb
REMARK  281 active torsions:
REMARK  status: ('A' for Active; 'I' for Inactive)
REMARK    1  A    between atoms: _1  and  _3
REMARK    2  A    between atoms: _3  and  _4
REMARK    3  A    between atoms: _3  and  _6
REMARK    4  A    between atoms: _6  and  _7
REMARK    5  A    between atoms: _12  and  _14
REMARK    6  A    between atoms: _14  and  _15
REMARK    7  A    between atoms: _17  and  _19
REMARK    8  A    between atoms: _19  and  _20
REMARK    9  A    between atoms: _19  and  _22
REMARK   10  A    between atoms: _22  and  _23
REMARK   11  A    between atoms: _25  and  _27
REMARK   12  A    between atoms: _27  and  _28
REMARK   13  A    between atoms: _27  and  _30
REMARK   14  A    between atoms: _30  and  _31
REMARK   15  A    between atoms: _31  and  _32
REMARK   16  A    between atoms: _37  and  _39
REMARK   17  A    between atoms: _39  and  _40
REMARK   18  A    between atoms: _39  and  _42
REMARK   19  A    between atoms: _42  and  _43
REMARK   20  A    between atoms: _46  and  _48
REMARK   21  A    between atoms: _48  and  _49
REMARK   22  A    between atoms: _48  and  _51
REMARK   23  A    between atoms: _51  and  _52
REMARK   24  A    between atoms: _52  and  _53
REMARK   25  A    between atoms: _56  and  _58
REMARK   26  A    between atoms: _58  and  _59
REMARK   27  A    between atoms: _61  and  _63
REMARK   28  A    between atoms: _63  and  _64
REMARK   29  A    between atoms: _63  and  _66
REMARK   30  A    between atoms: _70  and  _71
REMARK   31  A    between atoms: _76  and  _78
REMARK   32  A    between atoms: _78  and  _79
REMARK   33  A    between atoms: _78  and  _81
REMARK   34  A    between atoms: _81  and  _82
REMARK   35  A    between atoms: _82  and  _83
REMARK   36  A    between atoms: _86  and  _88
REMARK   37  A    between atoms: _88  and  _89
REMARK   38  A    between atoms: _88  and  _91
REMARK   39  A    between atoms: _91  and  _92
REMARK   40  A    between atoms: _94  and  _96
REMARK   41  A    between atoms: _96  and  _97
REMARK   42  A    between atoms: _96  and  _99
REMARK   43  A    between atoms: _99  and  _100
REMARK   44  A    between atoms: _105  and  _107
REMARK   45  A    between atoms: _107  and  _108
REMARK   46  A    between atoms: _107  and  _110
REMARK   47  A    between atoms: _110  and  _111
REMARK   48  A    between atoms: _111  and  _112
REMARK   49  A    between atoms: _112  and  _113
REMARK   50  A    between atoms: _123  and  _124
REMARK   51  A    between atoms: _129  and  _131
REMARK   52  A    between atoms: _131  and  _132
REMARK   53  A    between atoms: _131  and  _134
REMARK   54  A    between atoms: _134  and  _135
REMARK   55  A    between atoms: _140  and  _141
REMARK   56  A    between atoms: _143  and  _145
REMARK   57  A    between atoms: _145  and  _146
REMARK   58  A    between atoms: _145  and  _148
REMARK   59  A    between atoms: _148  and  _149
REMARK   60  A    between atoms: _154  and  _155
REMARK   61  A    between atoms: _157  and  _159
REMARK   62  A    between atoms: _159  and  _160
REMARK   63  A    between atoms: _159  and  _162
REMARK   64  A    between atoms: _162  and  _163
REMARK   65  A    between atoms: _168  and  _169
REMARK   66  A    between atoms: _171  and  _173
REMARK   67  A    between atoms: _173  and  _174
REMARK   68  A    between atoms: _173  and  _176
REMARK   69  A    between atoms: _179  and  _181
REMARK   70  A    between atoms: _181  and  _182
REMARK   71  A    between atoms: _181  and  _184
REMARK   72  A    between atoms: _184  and  _185
REMARK   73  A    between atoms: _191  and  _192
REMARK   74  A    between atoms: _197  and  _199
REMARK   75  A    between atoms: _199  and  _200
REMARK   76  A    between atoms: _199  and  _202
REMARK   77  A    between atoms: _202  and  _203
REMARK   78  A    between atoms: _205  and  _207
REMARK   79  A    between atoms: _207  and  _208
REMARK   80  A    between atoms: _207  and  _210
REMARK   81  A    between atoms: _210  and  _211
REMARK   82  A    between atoms: _211  and  _212
REMARK   83  A    between atoms: _215  and  _217
REMARK   84  A    between atoms: _217  and  _218
REMARK   85  A    between atoms: _217  and  _220
REMARK   86  A    between atoms: _220  and  _221
REMARK   87  A    between atoms: _226  and  _227
REMARK   88  A    between atoms: _229  and  _231
REMARK   89  A    between atoms: _231  and  _232
REMARK   90  A    between atoms: _231  and  _234
REMARK   91  A    between atoms: _234  and  _235
REMARK   92  A    between atoms: _240  and  _242
REMARK   93  A    between atoms: _242  and  _243
REMARK   94  A    between atoms: _242  and  _245
REMARK   95  A    between atoms: _245  and  _246
REMARK   96  A    between atoms: _251  and  _253
REMARK   97  A    between atoms: _253  and  _254
REMARK   98  A    between atoms: _253  and  _256
REMARK   99  A    between atoms: _256  and  _257
REMARK  100  A    between atoms: _257  and  _258
REMARK  101  A    between atoms: _260  and  _262
REMARK  102  A    between atoms: _262  and  _263
REMARK  103  A    between atoms: _262  and  _265
REMARK  104  A    between atoms: _265  and  _266
REMARK  105  A    between atoms: _271  and  _272
REMARK  106  A    between atoms: _274  and  _276
REMARK  107  A    between atoms: _276  and  _277
REMARK  108  A    between atoms: _276  and  _279
REMARK  109  A    between atoms: _279  and  _280
REMARK  110  A    between atoms: _283  and  _285
REMARK  111  A    between atoms: _285  and  _286
REMARK  112  A    between atoms: _285  and  _288
REMARK  113  A    between atoms: _288  and  _289
REMARK  114  A    between atoms: _289  and  _497
REMARK  115  A    between atoms: _290  and  _292
REMARK  116  A    between atoms: _292  and  _293
REMARK  117  A    between atoms: _292  and  _295
REMARK  118  A    between atoms: _295  and  _296
REMARK  119  A    between atoms: _299  and  _301
REMARK  120  A    between atoms: _301  and  _302
REMARK  121  A    between atoms: _301  and  _304
REMARK  122  A    between atoms: _304  and  _305
REMARK  123  A    between atoms: _310  and  _311
REMARK  124  A    between atoms: _313  and  _315
REMARK  125  A    between atoms: _315  and  _316
REMARK  126  A    between atoms: _315  and  _318
REMARK  127  A    between atoms: _318  and  _319
REMARK  128  A    between atoms: _324  and  _325
REMARK  129  A    between atoms: _327  and  _329
REMARK  130  A    between atoms: _329  and  _330
REMARK  131  A    between atoms: _329  and  _332
REMARK  132  A    between atoms: _332  and  _333
REMARK  133  A    between atoms: _333  and  _334
REMARK  134  A    between atoms: _337  and  _339
REMARK  135  A    between atoms: _339  and  _340
REMARK  136  A    between atoms: _339  and  _342
REMARK  137  A    between atoms: _342  and  _343
REMARK  138  A    between atoms: _348  and  _349
REMARK  139  A    between atoms: _351  and  _353
REMARK  140  A    between atoms: _353  and  _354
REMARK  141  A    between atoms: _353  and  _356
REMARK  142  A    between atoms: _356  and  _357
REMARK  143  A    between atoms: _362  and  _364
REMARK  144  A    between atoms: _364  and  _365
REMARK  145  A    between atoms: _364  and  _367
REMARK  146  A    between atoms: _367  and  _368
REMARK  147  A    between atoms: _371  and  _373
REMARK  148  A    between atoms: _373  and  _374
REMARK  149  A    between atoms: _373  and  _376
REMARK  150  A    between atoms: _376  and  _377
REMARK  151  A    between atoms: _382  and  _384
REMARK  152  A    between atoms: _384  and  _385
REMARK  153  A    between atoms: _384  and  _387
REMARK  154  A    between atoms: _387  and  _388
REMARK  155  A    between atoms: _398  and  _400
REMARK  156  A    between atoms: _400  and  _401
REMARK  157  A    between atoms: _400  and  _403
REMARK  158  A    between atoms: _403  and  _404
REMARK  159  A    between atoms: _410  and  _412
REMARK  160  A    between atoms: _412  and  _413
REMARK  161  A    between atoms: _412  and  _415
REMARK  162  A    between atoms: _415  and  _416
REMARK  163  A    between atoms: _419  and  _421
REMARK  164  A    between atoms: _421  and  _422
REMARK  165  A    between atoms: _421  and  _424
REMARK  166  A    between atoms: _424  and  _425
REMARK  167  A    between atoms: _425  and  _426
REMARK  168  A    between atoms: _426  and  _427
REMARK  169  A    between atoms: _436  and  _438
REMARK  170  A    between atoms: _438  and  _439
REMARK  171  A    between atoms: _438  and  _441
REMARK  172  A    between atoms: _441  and  _442
REMARK  173  A    between atoms: _447  and  _449
REMARK  174  A    between atoms: _449  and  _450
REMARK  175  A    between atoms: _449  and  _452
REMARK  176  A    between atoms: _452  and  _453
REMARK  177  A    between atoms: _453  and  _454
REMARK  178  A    between atoms: _454  and  _455
REMARK  179  A    between atoms: _464  and  _466
REMARK  180  A    between atoms: _466  and  _467
REMARK  181  A    between atoms: _470  and  _472
REMARK  182  A    between atoms: _472  and  _473
REMARK  183  A    between atoms: _475  and  _477
REMARK  184  A    between atoms: _477  and  _478
REMARK  185  A    between atoms: _477  and  _480
REMARK  186  A    between atoms: _480  and  _481
REMARK  187  A    between atoms: _491  and  _493
REMARK  188  A    between atoms: _493  and  _494
REMARK  189  A    between atoms: _493  and  _496
REMARK  190  A    between atoms: _496  and  _497
REMARK  191  A    between atoms: _498  and  _500
REMARK  192  A    between atoms: _500  and  _501
REMARK  193  A    between atoms: _504  and  _506
REMARK  194  A    between atoms: _506  and  _507
REMARK  195  A    between atoms: _506  and  _509
REMARK  196  A    between atoms: _509  and  _510
REMARK  197  A    between atoms: _513  and  _515
REMARK  198  A    between atoms: _515  and  _516
REMARK  199  A    between atoms: _515  and  _518
REMARK  200  A    between atoms: _518  and  _519
REMARK  201  A    between atoms: _524  and  _525
REMARK  202  A    between atoms: _527  and  _529
REMARK  203  A    between atoms: _529  and  _530
REMARK  204  A    between atoms: _529  and  _532
REMARK  205  A    between atoms: _532  and  _533
REMARK  206  A    between atoms: _535  and  _537
REMARK  207  A    between atoms: _537  and  _538
REMARK  208  A    between atoms: _537  and  _540
REMARK  209  A    between atoms: _540  and  _541
REMARK  210  A    between atoms: _547  and  _549
REMARK  211  A    between atoms: _549  and  _550
REMARK  212  A    between atoms: _549  and  _552
REMARK  213  A    between atoms: _552  and  _553
REMARK  214  A    between atoms: _556  and  _558
REMARK  215  A    between atoms: _558  and  _559
REMARK  216  A    between atoms: _558  and  _561
REMARK  217  A    between atoms: _561  and  _562
REMARK  218  A    between atoms: _562  and  _563
REMARK  219  A    between atoms: _565  and  _567
REMARK  220  A    between atoms: _567  and  _568
REMARK  221  A    between atoms: _567  and  _570
REMARK  222  A    between atoms: _570  and  _571
REMARK  223  A    between atoms: _573  and  _575
REMARK  224  A    between atoms: _575  and  _576
REMARK  225  A    between atoms: _575  and  _578
REMARK  226  A    between atoms: _578  and  _579
REMARK  227  A    between atoms: _581  and  _583
REMARK  228  A    between atoms: _583  and  _584
REMARK  229  A    between atoms: _583  and  _586
REMARK  230  A    between atoms: _586  and  _587
REMARK  231  A    between atoms: _592  and  _594
REMARK  232  A    between atoms: _594  and  _595
REMARK  233  A    between atoms: _594  and  _597
REMARK  234  A    between atoms: _597  and  _598
REMARK  235  A    between atoms: _603  and  _605
REMARK  236  A    between atoms: _605  and  _606
REMARK  237  A    between atoms: _605  and  _608
REMARK  238  A    between atoms: _608  and  _609
REMARK  239  A    between atoms: _612  and  _614
REMARK  240  A    between atoms: _614  and  _615
REMARK  241  A    between atoms: _618  and  _620
REMARK  242  A    between atoms: _620  and  _621
REMARK  243  A    between atoms: _620  and  _623
REMARK  244  A    between atoms: _623  and  _624
REMARK  245  A    between atoms: _629  and  _631
REMARK  246  A    between atoms: _631  and  _632
REMARK  247  A    between atoms: _631  and  _634
REMARK  248  A    between atoms: _634  and  _635
REMARK  249  A    between atoms: _640  and  _641
REMARK  250  A    between atoms: _643  and  _645
REMARK  251  A    between atoms: _645  and  _646
REMARK  252  A    between atoms: _645  and  _648
REMARK  253  A    between atoms: _648  and  _649
REMARK  254  A    between atoms: _654  and  _655
REMARK  255  A    between atoms: _657  and  _659
REMARK  256  A    between atoms: _659  and  _660
REMARK  257  A    between atoms: _659  and  _662
REMARK  258  A    between atoms: _665  and  _667
REMARK  259  A    between atoms: _667  and  _668
REMARK  260  A    between atoms: _667  and  _670
REMARK  261  A    between atoms: _670  and  _671
REMARK  262  A    between atoms: _676  and  _678
REMARK  263  A    between atoms: _678  and  _679
REMARK  264  A    between atoms: _682  and  _684
REMARK  265  A    between atoms: _684  and  _685
REMARK  266  A    between atoms: _684  and  _687
REMARK  267  A    between atoms: _687  and  _688
REMARK  268  A    between atoms: _688  and  _689
REMARK  269  A    between atoms: _689  and  _690
REMARK  270  A    between atoms: _699  and  _701
REMARK  271  A    between atoms: _701  and  _702
REMARK  272  A    between atoms: _701  and  _704
REMARK  273  A    between atoms: _704  and  _705
REMARK  274  A    between atoms: _708  and  _710
REMARK  275  A    between atoms: _710  and  _711
REMARK  276  A    between atoms: _710  and  _713
REMARK  277  A    between atoms: _713  and  _714
REMARK  278  A    between atoms: _717  and  _719
REMARK  279  A    between atoms: _719  and  _720
REMARK  280  A    between atoms: _719  and  _722
REMARK  281  A    between atoms: _722  and  _723
REMARK                            x       y       z     vdW  Elec       q    Type
REMARK                         _______ _______ _______ _____ _____    ______ ____
ROOT
ATOM      1  CB  ASN A   1      -2.933  27.623  17.127  0.00  0.00    +0.110 C 
ENDROOT
BRANCH   1   2
ATOM      2  CG  ASN A   1      -3.286  26.155  17.119  0.00  0.00    +0.221 C 
ATOM      3  OD1 ASN A   1      -3.196  25.524  18.165  0.00  0.00    -0.275 OA
ATOM      4  ND2 ASN A   1      -3.652  25.590  15.946  0.00  0.00    -0.329 N 
ATOM      5 HD21 ASN A   1      -3.872  24.574  15.904  0.00  0.00    +0.145 HD
ATOM      6 HD22 ASN A   1      -3.713  26.171  15.086  0.00  0.00    +0.145 HD
ENDBRANCH   1   2
BRANCH   1   7
ATOM      7  CA  ASN A   1      -3.799  28.482  18.029  0.00  0.00    +0.142 C 
BRANCH   7   8
ATOM      8  N   ASN A   1      -3.856  27.944  19.396  0.00  0.00    -0.239 NA
ATOM      9  H   ASN A   1      -3.669  26.937  19.575  0.00  0.00    +0.142 HD
ENDBRANCH   7   8
BRANCH   7  10
ATOM     10  C   ASN A   1      -5.229  28.570  17.500  0.00  0.00    +0.225 C 
ATOM     11  O   ASN A   1      -6.004  27.630  17.630  0.00  0.00    -0.287 OA
ENDBRANCH   7  10
ENDBRANCH   1   7
TORSDOF 4
REMARK  Name = ../refined-set-2016/1qka/1qka_pocket.pdb
REMARK  281 active torsions:
REMARK  status: ('A' for Active; 'I' for Inactive)
REMARK    1  A    between atoms: _1  and  _3
REMARK    2  A    between atoms: _3  and  _4
REMARK    3  A    between atoms: _3  and  _6
REMARK    4  A    between atoms: _6  and  _7
REMARK    5  A    between atoms: _12  and  _14
REMARK    6  A    between atoms: _14  and  _15
REMARK    7  A    between atoms: _17  and  _19
REMARK    8  A    between atoms: _19  and  _20
REMARK    9  A    between atoms: _19  and  _22
REMARK   10  A    between atoms: _22  and  _23
REMARK   11  A    between atoms: _25  and  _27
REMARK   12  A    between atoms: _27  and  _28
REMARK   13  A    between atoms: _27  and  _30
REMARK   14  A    between atoms: _30  and  _31
REMARK   15  A    between atoms: _31  and  _32
REMARK   16  A    between atoms: _37  and  _39
REMARK   17  A    between atoms: _39  and  _40
REMARK   18  A    between atoms: _39  and  _42
REMARK   19  A    between atoms: _42  and  _43
REMARK   20  A    between atoms: _46  and  _48
REMARK   21  A    between atoms: _48  and  _49
REMARK   22  A    between atoms: _48  and  _51
REMARK   23  A    between atoms: _51  and  _52
REMARK   24  A    between atoms: _52  and  _53
REMARK   25  A    between atoms: _56  and  _58
REMARK   26  A    between atoms: _58  and  _59
REMARK   27  A    between atoms: _61  and  _63
REMARK   28  A    between atoms: _63  and  _64
REMARK   29  A    between atoms: _63  and  _66
REMARK   30  A    between atoms: _70  and  _71
REMARK   31  A    between atoms: _76  and  _78
REMARK   32  A    between atoms: _78  and  _79
REMARK   33  A    between atoms: _78  and  _81
REMARK   34  A    between atoms: _81  and  _82
REMARK   35  A    between atoms: _82  and  _83
REMARK   36  A    between atoms: _86  and  _88
REMARK   37  A    between atoms: _88  and  _89
REMARK   38  A    between atoms: _88  and  _91
REMARK   39  A    between atoms: _91  and  _92
REMARK   40  A    between atoms: _94  and  _96
REMARK   41  A    between atoms: _96  and  _97
REMARK   42  A    between atoms: _96  and  _99
REMARK   43  A    between atoms: _99  and  _100
REMARK   44  A    between atoms: _105  and  _107
REMARK   45  A    between atoms: _107  and  _108
REMARK   46  A    between atoms: _107  and  _110
REMARK   47  A    between atoms: _110  and  _111
REMARK   48  A    between atoms: _111  and  _112
REMARK   49  A    between atoms: _112  and  _113
REMARK   50  A    between atoms: _123  and  _124
REMARK   51  A    between atoms: _129  and  _131
REMARK   52  A    between atoms: _131  and  _132
REMARK   53  A    between atoms: _131  and  _134
REMARK   54  A    between atoms: _134  and  _135
REMARK   55  A    between atoms: _140  and  _141
REMARK   56  A    between atoms: _143  and  _145
REMARK   57  A    between atoms: _145  and  _146
REMARK   58  A    between atoms: _145  and  _148
REMARK   59  A    between atoms: _148  and  _149
REMARK   60  A    between atoms: _154  and  _155
REMARK   61  A    between atoms: _157  and  _159
REMARK   62  A    between atoms: _159  and  _160
REMARK   63  A    between atoms: _159  and  _162
REMARK   64  A    between atoms: _162  and  _163
REMARK   65  A    between atoms: _168  and  _169
REMARK   66  A    between atoms: _171  and  _173
REMARK   67  A    between atoms: _173  and  _174
REMARK   68  A    between atoms: _173  and  _176
REMARK   69  A    between atoms: _179  and  _181
REMARK   70  A    between atoms: _181  and  _182
REMARK   71  A    between atoms: _181  and  _184
REMARK   72  A    between atoms: _184  and  _185
REMARK   73  A    between atoms: _191  and  _192
REMARK   74  A    between atoms: _197  and  _199
REMARK   75  A    between atoms: _199  and  _200
REMARK   76  A    between atoms: _199  and  _202
REMARK   77  A    between atoms: _202  and  _203
REMARK   78  A    between atoms: _205  and  _207
REMARK   79  A    between atoms: _207  and  _208
REMARK   80  A    between atoms: _207  and  _210
REMARK   81  A    between atoms: _210  and  _211
REMARK   82  A    between atoms: _211  and  _212
REMARK   83  A    between atoms: _215  and  _217
REMARK   84  A    between atoms: _217  and  _218
REMARK   85  A    between atoms: _217  and  _220
REMARK   86  A    between atoms: _220  and  _221
REMARK   87  A    between atoms: _226  and  _227
REMARK   88  A    between atoms: _229  and  _231
REMARK   89  A    between atoms: _231  and  _232
REMARK   90  A    between atoms: _231  and  _234
REMARK   91  A    between atoms: _234  and  _235
REMARK   92  A    between atoms: _240  and  _242
REMARK   93  A    between atoms: _242  and  _243
REMARK   94  A    between atoms: _242  and  _245
REMARK   95  A    between atoms: _245  and  _246
REMARK   96  A    between atoms: _251  and  _253
REMARK   97  A    between atoms: _253  and  _254
REMARK   98  A    between atoms: _253  and  _256
REMARK   99  A    between atoms: _256  and  _257
REMARK  100  A    between atoms: _257  and  _258
REMARK  101  A    between atoms: _260  and  _262
REMARK  102  A    between atoms: _262  and  _263
REMARK  103  A    between atoms: _262  and  _265
REMARK  104  A    between atoms: _265  and  _266
REMARK  105  A    between atoms: _271  and  _272
REMARK  106  A    between atoms: _274  and  _276
REMARK  107  A    between atoms: _276  and  _277
REMARK  108  A    between atoms: _276  and  _279
REMARK  109  A    between atoms: _279  and  _280
REMARK  110  A    between atoms: _283  and  _285
REMARK  111  A    between atoms: _285  and  _286
REMARK  112  A    between atoms: _285  and  _288
REMARK  113  A    between atoms: _288  and  _289
REMARK  114  A    between atoms: _289  and  _497
REMARK  115  A    between atoms: _290  and  _292
REMARK  116  A    between atoms: _292  and  _293
REMARK  117  A    between atoms: _292  and  _295
REMARK  118  A    between atoms: _295  and  _296
REMARK  119  A    between atoms: _299  and  _301
REMARK  120  A    between atoms: _301  and  _302
REMARK  121  A    between atoms: _301  and  _304
REMARK  122  A    between atoms: _304  and  _305
REMARK  123  A    between atoms: _310  and  _311
REMARK  124  A    between atoms: _313  and  _315
REMARK  125  A    between atoms: _315  and  _316
REMARK  126  A    between atoms: _315  and  _318
REMARK  127  A    between atoms: _318  and  _319
REMARK  128  A    between atoms: _324  and  _325
REMARK  129  A    between atoms: _327  and  _329
REMARK  130  A    between atoms: _329  and  _330
REMARK  131  A    between atoms: _329  and  _332
REMARK  132  A    between atoms: _332  and  _333
REMARK  133  A    between atoms: _333  and  _334
REMARK  134  A    between atoms: _337  and  _339
REMARK  135  A    between atoms: _339  and  _340
REMARK  136  A    between atoms: _339  and  _342
REMARK  137  A    between atoms: _342  and  _343
REMARK  138  A    between atoms: _348  and  _349
REMARK  139  A    between atoms: _351  and  _353
REMARK  140  A    between atoms: _353  and  _354
REMARK  141  A    between atoms: _353  and  _356
REMARK  142  A    between atoms: _356  and  _357
REMARK  143  A    between atoms: _362  and  _364
REMARK  144  A    between atoms: _364  and  _365
REMARK  145  A    between atoms: _364  and  _367
REMARK  146  A    between atoms: _367  and  _368
REMARK  147  A    between atoms: _371  and  _373
REMARK  148  A    between atoms: _373  and  _374
REMARK  149  A    between atoms: _373  and  _376
REMARK  150  A    between atoms: _376  and  _377
REMARK  151  A    between atoms: _382  and  _384
REMARK  152  A    between atoms: _384  and  _385
REMARK  153  A    between atoms: _384  and  _387
REMARK  154  A    between atoms: _387  and  _388
REMARK  155  A    between atoms: _398  and  _400
REMARK  156  A    between atoms: _400  and  _401
REMARK  157  A    between atoms: _400  and  _403
REMARK  158  A    between atoms: _403  and  _404
REMARK  159  A    between atoms: _410  and  _412
REMARK  160  A    between atoms: _412  and  _413
REMARK  161  A    between atoms: _412  and  _415
REMARK  162  A    between atoms: _415  and  _416
REMARK  163  A    between atoms: _419  and  _421
REMARK  164  A    between atoms: _421  and  _422
REMARK  165  A    between atoms: _421  and  _424
REMARK  166  A    between atoms: _424  and  _425
REMARK  167  A    between atoms: _425  and  _426
REMARK  168  A    between atoms: _426  and  _427
REMARK  169  A    between atoms: _436  and  _438
REMARK  170  A    between atoms: _438  and  _439
REMARK  171  A    between atoms: _438  and  _441
REMARK  172  A    between atoms: _441  and  _442
REMARK  173  A    between atoms: _447  and  _449
REMARK  174  A    between atoms: _449  and  _450
REMARK  175  A    between atoms: _449  and  _452
REMARK  176  A    between atoms: _452  and  _453
REMARK  177  A    between atoms: _453  and  _454
REMARK  178  A    between atoms: _454  and  _455
REMARK  179  A    between atoms: _464  and  _466
REMARK  180  A    between atoms: _466  and  _467
REMARK  181  A    between atoms: _470  and  _472
REMARK  182  A    between atoms: _472  and  _473
REMARK  183  A    between atoms: _475  and  _477
REMARK  184  A    between atoms: _477  and  _478
REMARK  185  A    between atoms: _477  and  _480
REMARK  186  A    between atoms: _480  and  _481
REMARK  187  A    between atoms: _491  and  _493
REMARK  188  A    between atoms: _493  and  _494
REMARK  189  A    between atoms: _493  and  _496
REMARK  190  A    between atoms: _496  and  _497
REMARK  191  A    between atoms: _498  and  _500
REMARK  192  A    between atoms: _500  and  _501
REMARK  193  A    between atoms: _504  and  _506
REMARK  194  A    between atoms: _506  and  _507
REMARK  195  A    between atoms: _506  and  _509
REMARK  196  A    between atoms: _509  and  _510
REMARK  197  A    between atoms: _513  and  _515
REMARK  198  A    between atoms: _515  and  _516
REMARK  199  A    between atoms: _515  and  _518
REMARK  200  A    between atoms: _518  and  _519
REMARK  201  A    between atoms: _524  and  _525
REMARK  202  A    between atoms: _527  and  _529
REMARK  203  A    between atoms: _529  and  _530
REMARK  204  A    between atoms: _529  and  _532
REMARK  205  A    between atoms: _532  and  _533
REMARK  206  A    between atoms: _535  and  _537
REMARK  207  A    between atoms: _537  and  _538
REMARK  208  A    between atoms: _537  and  _540
REMARK  209  A    between atoms: _540  and  _541
REMARK  210  A    between atoms: _547  and  _549
REMARK  211  A    between atoms: _549  and  _550
REMARK  212  A    between atoms: _549  and  _552
REMARK  213  A    between atoms: _552  and  _553
REMARK  214  A    between atoms: _556  and  _558
REMARK  215  A    between atoms: _558  and  _559
REMARK  216  A    between atoms: _558  and  _561
REMARK  217  A    between atoms: _561  and  _562
REMARK  218  A    between atoms: _562  and  _563
REMARK  219  A    between atoms: _565  and  _567
REMARK  220  A    between atoms: _567  and  _568
REMARK  221  A    between atoms: _567  and  _570
REMARK  222  A    between atoms: _570  and  _571
REMARK  223  A    between atoms: _573  and  _575
REMARK  224  A    between atoms: _575  and  _576
REMARK  225  A    between atoms: _575  and  _578
REMARK  226  A    between atoms: _578  and  _579
REMARK  227  A    between atoms: _581  and  _583
REMARK  228  A    between atoms: _583  and  _584
REMARK  229  A    between atoms: _583  and  _586
REMARK  230  A    between atoms: _586  and  _587
REMARK  231  A    between atoms: _592  and  _594
REMARK  232  A    between atoms: _594  and  _595
REMARK  233  A    between atoms: _594  and  _597
REMARK  234  A    between atoms: _597  and  _598
REMARK  235  A    between atoms: _603  and  _605
REMARK  236  A    between atoms: _605  and  _606
REMARK  237  A    between atoms: _605  and  _608
REMARK  238  A    between atoms: _608  and  _609
REMARK  239  A    between atoms: _612  and  _614
REMARK  240  A    between atoms: _614  and  _615
REMARK  241  A    between atoms: _618  and  _620
REMARK  242  A    between atoms: _620  and  _621
REMARK  243  A    between atoms: _620  and  _623
REMARK  244  A    between atoms: _623  and  _624
REMARK  245  A    between atoms: _629  and  _631
REMARK  246  A    between atoms: _631  and  _632
REMARK  247  A    between atoms: _631  and  _634
REMARK  248  A    between atoms: _634  and  _635
REMARK  249  A    between atoms: _640  and  _641
REMARK  250  A    between atoms: _643  and  _645
REMARK  251  A    between atoms: _645  and  _646
REMARK  252  A    between atoms: _645  and  _648
REMARK  253  A    between atoms: _648  and  _649
REMARK  254  A    between atoms: _654  and  _655
REMARK  255  A    between atoms: _657  and  _659
REMARK  256  A    between atoms: _659  and  _660
REMARK  257  A    between atoms: _659  and  _662
REMARK  258  A    between atoms: _665  and  _667
REMARK  259  A    between atoms: _667  and  _668
REMARK  260  A    between atoms: _667  and  _670
REMARK  261  A    between atoms: _670  and  _671
REMARK  262  A    between atoms: _676  and  _678
REMARK  263  A    between atoms: _678  and  _679
REMARK  264  A    between atoms: _682  and  _684
REMARK  265  A    between atoms: _684  and  _685
REMARK  266  A    between atoms: _684  and  _687
REMARK  267  A    between atoms: _687  and  _688
REMARK  268  A    between atoms: _688  and  _689
REMARK  269  A    between atoms: _689  and  _690
REMARK  270  A    between atoms: _699  and  _701
REMARK  271  A    between atoms: _701  and  _702
REMARK  272  A    between atoms: _701  and  _704
REMARK  273  A    between atoms: _704  and  _705
REMARK  274  A    between atoms: _708  and  _710
REMARK  275  A    between atoms: _710  and  _711
REMARK  276  A    between atoms: _710  and  _713
REMARK  277  A    between atoms: _713  and  _714
REMARK  278  A    between atoms: _717  and  _719
REMARK  279  A    between atoms: _719  and  _720
REMARK  280  A    between atoms: _719  and  _722
REMARK  281  A    between atoms: _722  and  _723
REMARK                            x       y       z     vdW  Elec       q    Type
REMARK                         _______ _______ _______ _____ _____    ______ ____
ROOT
ATOM      1  C   LEU A   1     -11.089  23.130  18.722  0.00  0.00    +0.238 C 
ATOM      2  O   LEU A   1     -11.511  22.742  19.819  0.00  0.00    -0.274 OA
ATOM      3  N   HIS A   2      -9.948  23.853  18.620  0.00  0.00    -0.298 N 
ATOM      4  H   HIS A   2      -9.633  24.222  17.700  0.00  0.00    +0.150 HD
ENDROOT
BRANCH   1   5
ATOM      5  CA  LEU A   1     -11.884  22.824  17.449  0.00  0.00    +0.145 C 
BRANCH   5   6
ATOM      6  N   LEU A   1     -12.135  23.989  16.652  0.00  0.00    -0.238 NA
ATOM      7  H   LEU A   1     -11.791  23.992  15.670  0.00  0.00    +0.142 HD
ENDBRANCH   5   6
BRANCH   5   8
ATOM      8  CB  LEU A   1     -11.062  21.780  16.640  0.00  0.00    +0.026 C 
BRANCH   8   9
ATOM      9  CG  LEU A   1     -10.657  20.509  17.379  0.00  0.00    +0.002 C 
ATOM     10  CD2 LEU A   1     -11.910  19.772  17.857  0.00  0.00    +0.000 C 
ATOM     11  CD1 LEU A   1      -9.834  19.596  16.478  0.00  0.00    +0.000 C 
ENDBRANCH   8   9
ENDBRANCH   5   8
ENDBRANCH   1   5
BRANCH   3  12
ATOM     12  CA  HIS A   2      -9.169  24.103  19.833  0.00  0.00    +0.143 C 
BRANCH  12  13
ATOM     13  C   HIS A   2      -9.921  25.056  20.767  0.00  0.00    +0.227 C 
ATOM     14  O   HIS A   2      -9.788  24.960  21.988  0.00  0.00    -0.286 OA
ENDBRANCH  12  13
BRANCH  12  15
ATOM     15  CB  HIS A   2      -7.737  24.584  19.563  0.00  0.00    +0.075 C 
BRANCH  15  16
ATOM     16  CG  HIS A   2      -6.980  23.629  18.670  0.00  0.00    +0.082 A 
ATOM     17  ND1 HIS A   2      -6.977  22.277  18.891  0.00  0.00    -0.227 NA
ATOM     18  CE1 HIS A   2      -6.251  21.660  17.954  0.00  0.00    +0.199 A 
ATOM     19  NE2 HIS A   2      -5.776  22.602  17.151  0.00  0.00    -0.221 NA
ATOM     20  CD2 HIS A   2      -6.211  23.845  17.564  0.00  0.00    +0.115 A 
ENDBRANCH  15  16
ENDBRANCH  12  15
ENDBRANCH   3  12
TORSDOF 8
REMARK  Name = ../refined-set-2016/1qka/1qka_pocket.pdb
REMARK  281 active torsions:
REMARK  status: ('A' for Active; 'I' for Inactive)
REMARK    1  A    between atoms: _1  and  _3
REMARK    2  A    between atoms: _3  and  _4
REMARK    3  A    between atoms: _3  and  _6
REMARK    4  A    between atoms: _6  and  _7
REMARK    5  A    between atoms: _12  and  _14
REMARK    6  A    between atoms: _14  and  _15
REMARK    7  A    between atoms: _17  and  _19
REMARK    8  A    between atoms: _19  and  _20
REMARK    9  A    between atoms: _19  and  _22
REMARK   10  A    between atoms: _22  and  _23
REMARK   11  A    between atoms: _25  and  _27
REMARK   12  A    between atoms: _27  and  _28
REMARK   13  A    between atoms: _27  and  _30
REMARK   14  A    between atoms: _30  and  _31
REMARK   15  A    between atoms: _31  and  _32
REMARK   16  A    between atoms: _37  and  _39
REMARK   17  A    between atoms: _39  and  _40
REMARK   18  A    between atoms: _39  and  _42
REMARK   19  A    between atoms: _42  and  _43
REMARK   20  A    between atoms: _46  and  _48
REMARK   21  A    between atoms: _48  and  _49
REMARK   22  A    between atoms: _48  and  _51
REMARK   23  A    between atoms: _51  and  _52
REMARK   24  A    between atoms: _52  and  _53
REMARK   25  A    between atoms: _56  and  _58
REMARK   26  A    between atoms: _58  and  _59
REMARK   27  A    between atoms: _61  and  _63
REMARK   28  A    between atoms: _63  and  _64
REMARK   29  A    between atoms: _63  and  _66
REMARK   30  A    between atoms: _70  and  _71
REMARK   31  A    between atoms: _76  and  _78
REMARK   32  A    between atoms: _78  and  _79
REMARK   33  A    between atoms: _78  and  _81
REMARK   34  A    between atoms: _81  and  _82
REMARK   35  A    between atoms: _82  and  _83
REMARK   36  A    between atoms: _86  and  _88
REMARK   37  A    between atoms: _88  and  _89
REMARK   38  A    between atoms: _88  and  _91
REMARK   39  A    between atoms: _91  and  _92
REMARK   40  A    between atoms: _94  and  _96
REMARK   41  A    between atoms: _96  and  _97
REMARK   42  A    between atoms: _96  and  _99
REMARK   43  A    between atoms: _99  and  _100
REMARK   44  A    between atoms: _105  and  _107
REMARK   45  A    between atoms: _107  and  _108
REMARK   46  A    between atoms: _107  and  _110
REMARK   47  A    between atoms: _110  and  _111
REMARK   48  A    between atoms: _111  and  _112
REMARK   49  A    between atoms: _112  and  _113
REMARK   50  A    between atoms: _123  and  _124
REMARK   51  A    between atoms: _129  and  _131
REMARK   52  A    between atoms: _131  and  _132
REMARK   53  A    between atoms: _131  and  _134
REMARK   54  A    between atoms: _134  and  _135
REMARK   55  A    between atoms: _140  and  _141
REMARK   56  A    between atoms: _143  and  _145
REMARK   57  A    between atoms: _145  and  _146
REMARK   58  A    between atoms: _145  and  _148
REMARK   59  A    between atoms: _148  and  _149
REMARK   60  A    between atoms: _154  and  _155
REMARK   61  A    between atoms: _157  and  _159
REMARK   62  A    between atoms: _159  and  _160
REMARK   63  A    between atoms: _159  and  _162
REMARK   64  A    between atoms: _162  and  _163
REMARK   65  A    between atoms: _168  and  _169
REMARK   66  A    between atoms: _171  and  _173
REMARK   67  A    between atoms: _173  and  _174
REMARK   68  A    between atoms: _173  and  _176
REMARK   69  A    between atoms: _179  and  _181
REMARK   70  A    between atoms: _181  and  _182
REMARK   71  A    between atoms: _181  and  _184
REMARK   72  A    between atoms: _184  and  _185
REMARK   73  A    between atoms: _191  and  _192
REMARK   74  A    between atoms: _197  and  _199
REMARK   75  A    between atoms: _199  and  _200
REMARK   76  A    between atoms: _199  and  _202
REMARK   77  A    between atoms: _202  and  _203
REMARK   78  A    between atoms: _205  and  _207
REMARK   79  A    between atoms: _207  and  _208
REMARK   80  A    between atoms: _207  and  _210
REMARK   81  A    between atoms: _210  and  _211
REMARK   82  A    between atoms: _211  and  _212
REMARK   83  A    between atoms: _215  and  _217
REMARK   84  A    between atoms: _217  and  _218
REMARK   85  A    between atoms: _217  and  _220
REMARK   86  A    between atoms: _220  and  _221
REMARK   87  A    between atoms: _226  and  _227
REMARK   88  A    between atoms: _229  and  _231
REMARK   89  A    between atoms: _231  and  _232
REMARK   90  A    between atoms: _231  and  _234
REMARK   91  A    between atoms: _234  and  _235
REMARK   92  A    between atoms: _240  and  _242
REMARK   93  A    between atoms: _242  and  _243
REMARK   94  A    between atoms: _242  and  _245
REMARK   95  A    between atoms: _245  and  _246
REMARK   96  A    between atoms: _251  and  _253
REMARK   97  A    between atoms: _253  and  _254
REMARK   98  A    between atoms: _253  and  _256
REMARK   99  A    between atoms: _256  and  _257
REMARK  100  A    between atoms: _257  and  _258
REMARK  101  A    between atoms: _260  and  _262
REMARK  102  A    between atoms: _262  and  _263
REMARK  103  A    between atoms: _262  and  _265
REMARK  104  A    between atoms: _265  and  _266
REMARK  105  A    between atoms: _271  and  _272
REMARK  106  A    between atoms: _274  and  _276
REMARK  107  A    between atoms: _276  and  _277
REMARK  108  A    between atoms: _276  and  _279
REMARK  109  A    between atoms: _279  and  _280
REMARK  110  A    between atoms: _283  and  _285
REMARK  111  A    between atoms: _285  and  _286
REMARK  112  A    between atoms: _285  and  _288
REMARK  113  A    between atoms: _288  and  _289
REMARK  114  A    between atoms: _289  and  _497
REMARK  115  A    between atoms: _290  and  _292
REMARK  116  A    between atoms: _292  and  _293
REMARK  117  A    between atoms: _292  and  _295
REMARK  118  A    between atoms: _295  and  _296
REMARK  119  A    between atoms: _299  and  _301
REMARK  120  A    between atoms: _301  and  _302
REMARK  121  A    between atoms: _301  and  _304
REMARK  122  A    between atoms: _304  and  _305
REMARK  123  A    between atoms: _310  and  _311
REMARK  124  A    between atoms: _313  and  _315
REMARK  125  A    between atoms: _315  and  _316
REMARK  126  A    between atoms: _315  and  _318
REMARK  127  A    between atoms: _318  and  _319
REMARK  128  A    between atoms: _324  and  _325
REMARK  129  A    between atoms: _327  and  _329
REMARK  130  A    between atoms: _329  and  _330
REMARK  131  A    between atoms: _329  and  _332
REMARK  132  A    between atoms: _332  and  _333
REMARK  133  A    between atoms: _333  and  _334
REMARK  134  A    between atoms: _337  and  _339
REMARK  135  A    between atoms: _339  and  _340
REMARK  136  A    between atoms: _339  and  _342
REMARK  137  A    between atoms: _342  and  _343
REMARK  138  A    between atoms: _348  and  _349
REMARK  139  A    between atoms: _351  and  _353
REMARK  140  A    between atoms: _353  and  _354
REMARK  141  A    between atoms: _353  and  _356
REMARK  142  A    between atoms: _356  and  _357
REMARK  143  A    between atoms: _362  and  _364
REMARK  144  A    between atoms: _364  and  _365
REMARK  145  A    between atoms: _364  and  _367
REMARK  146  A    between atoms: _367  and  _368
REMARK  147  A    between atoms: _371  and  _373
REMARK  148  A    between atoms: _373  and  _374
REMARK  149  A    between atoms: _373  and  _376
REMARK  150  A    between atoms: _376  and  _377
REMARK  151  A    between atoms: _382  and  _384
REMARK  152  A    between atoms: _384  and  _385
REMARK  153  A    between atoms: _384  and  _387
REMARK  154  A    between atoms: _387  and  _388
REMARK  155  A    between atoms: _398  and  _400
REMARK  156  A    between atoms: _400  and  _401
REMARK  157  A    between atoms: _400  and  _403
REMARK  158  A    between atoms: _403  and  _404
REMARK  159  A    between atoms: _410  and  _412
REMARK  160  A    between atoms: _412  and  _413
REMARK  161  A    between atoms: _412  and  _415
REMARK  162  A    between atoms: _415  and  _416
REMARK  163  A    between atoms: _419  and  _421
REMARK  164  A    between atoms: _421  and  _422
REMARK  165  A    between atoms: _421  and  _424
REMARK  166  A    between atoms: _424  and  _425
REMARK  167  A    between atoms: _425  and  _426
REMARK  168  A    between atoms: _426  and  _427
REMARK  169  A    between atoms: _436  and  _438
REMARK  170  A    between atoms: _438  and  _439
REMARK  171  A    between atoms: _438  and  _441
REMARK  172  A    between atoms: _441  and  _442
REMARK  173  A    between atoms: _447  and  _449
REMARK  174  A    between atoms: _449  and  _450
REMARK  175  A    between atoms: _449  and  _452
REMARK  176  A    between atoms: _452  and  _453
REMARK  177  A    between atoms: _453  and  _454
REMARK  178  A    between atoms: _454  and  _455
REMARK  179  A    between atoms: _464  and  _466
REMARK  180  A    between atoms: _466  and  _467
REMARK  181  A    between atoms: _470  and  _472
REMARK  182  A    between atoms: _472  and  _473
REMARK  183  A    between atoms: _475  and  _477
REMARK  184  A    between atoms: _477  and  _478
REMARK  185  A    between atoms: _477  and  _480
REMARK  186  A    between atoms: _480  and  _481
REMARK  187  A    between atoms: _491  and  _493
REMARK  188  A    between atoms: _493  and  _494
REMARK  189  A    between atoms: _493  and  _496
REMARK  190  A    between atoms: _496  and  _497
REMARK  191  A    between atoms: _498  and  _500
REMARK  192  A    between atoms: _500  and  _501
REMARK  193  A    between atoms: _504  and  _506
REMARK  194  A    between atoms: _506  and  _507
REMARK  195  A    between atoms: _506  and  _509
REMARK  196  A    between atoms: _509  and  _510
REMARK  197  A    between atoms: _513  and  _515
REMARK  198  A    between atoms: _515  and  _516
REMARK  199  A    between atoms: _515  and  _518
REMARK  200  A    between atoms: _518  and  _519
REMARK  201  A    between atoms: _524  and  _525
REMARK  202  A    between atoms: _527  and  _529
REMARK  203  A    between atoms: _529  and  _530
REMARK  204  A    between atoms: _529  and  _532
REMARK  205  A    between atoms: _532  and  _533
REMARK  206  A    between atoms: _535  and  _537
REMARK  207  A    between atoms: _537  and  _538
REMARK  208  A    between atoms: _537  and  _540
REMARK  209  A    between atoms: _540  and  _541
REMARK  210  A    between atoms: _547  and  _549
REMARK  211  A    between atoms: _549  and  _550
REMARK  212  A    between atoms: _549  and  _552
REMARK  213  A    between atoms: _552  and  _553
REMARK  214  A    between atoms: _556  and  _558
REMARK  215  A    between atoms: _558  and  _559
REMARK  216  A    between atoms: _558  and  _561
REMARK  217  A    between atoms: _561  and  _562
REMARK  218  A    between atoms: _562  and  _563
REMARK  219  A    between atoms: _565  and  _567
REMARK  220  A    between atoms: _567  and  _568
REMARK  221  A    between atoms: _567  and  _570
REMARK  222  A    between atoms: _570  and  _571
REMARK  223  A    between atoms: _573  and  _575
REMARK  224  A    between atoms: _575  and  _576
REMARK  225  A    between atoms: _575  and  _578
REMARK  226  A    between atoms: _578  and  _579
REMARK  227  A    between atoms: _581  and  _583
REMARK  228  A    between atoms: _583  and  _584
REMARK  229  A    between atoms: _583  and  _586
REMARK  230  A    between atoms: _586  and  _587
REMARK  231  A    between atoms: _592  and  _594
REMARK  232  A    between atoms: _594  and  _595
REMARK  233  A    between atoms: _594  and  _597
REMARK  234  A    between atoms: _597  and  _598
REMARK  235  A    between atoms: _603  and  _605
REMARK  236  A    between atoms: _605  and  _606
REMARK  237  A    between atoms: _605  and  _608
REMARK  238  A    between atoms: _608  and  _609
REMARK  239  A    between atoms: _612  and  _614
REMARK  240  A    between atoms: _614  and  _615
REMARK  241  A    between atoms: _618  and  _620
REMARK  242  A    between atoms: _620  and  _621
REMARK  243  A    between atoms: _620  and  _623
REMARK  244  A    between atoms: _623  and  _624
REMARK  245  A    between atoms: _629  and  _631
REMARK  246  A    between atoms: _631  and  _632
REMARK  247  A    between atoms: _631  and  _634
REMARK  248  A    between atoms: _634  and  _635
REMARK  249  A    between atoms: _640  and  _641
REMARK  250  A    between atoms: _643  and  _645
REMARK  251  A    between atoms: _645  and  _646
REMARK  252  A    between atoms: _645  and  _648
REMARK  253  A    between atoms: _648  and  _649
REMARK  254  A    between atoms: _654  and  _655
REMARK  255  A    between atoms: _657  and  _659
REMARK  256  A    between atoms: _659  and  _660
REMARK  257  A    between atoms: _659  and  _662
REMARK  258  A    between atoms: _665  and  _667
REMARK  259  A    between atoms: _667  and  _668
REMARK  260  A    between atoms: _667  and  _670
REMARK  261  A    between atoms: _670  and  _671
REMARK  262  A    between atoms: _676  and  _678
REMARK  263  A    between atoms: _678  and  _679
REMARK  264  A    between atoms: _682  and  _684
REMARK  265  A    between atoms: _684  and  _685
REMARK  266  A    between atoms: _684  and  _687
REMARK  267  A    between atoms: _687  and  _688
REMARK  268  A    between atoms: _688  and  _689
REMARK  269  A    between atoms: _689  and  _690
REMARK  270  A    between atoms: _699  and  _701
REMARK  271  A    between atoms: _701  and  _702
REMARK  272  A    between atoms: _701  and  _704
REMARK  273  A    between atoms: _704  and  _705
REMARK  274  A    between atoms: _708  and  _710
REMARK  275  A    between atoms: _710  and  _711
REMARK  276  A    between atoms: _710  and  _713
REMARK  277  A    between atoms: _713  and  _714
REMARK  278  A    between atoms: _717  and  _719
REMARK  279  A    between atoms: _719  and  _720
REMARK  280  A    between atoms: _719  and  _722
REMARK  281  A    between atoms: _722  and  _723
REMARK                            x       y       z     vdW  Elec       q    Type
REMARK                         _______ _______ _______ _____ _____    ______ ____
ROOT
ATOM      1  CG  TRP A   1       0.560  27.222  13.091  0.00  0.00    -0.002 A 
ATOM      2  CD2 TRP A   1       0.569  26.108  13.982  0.00  0.00    +0.013 A 
ATOM      3  CE3 TRP A   1      -0.101  25.808  15.177  0.00  0.00    +0.001 A 
ATOM      4  CZ3 TRP A   1       0.155  24.597  15.811  0.00  0.00    +0.000 A 
ATOM      5  CH2 TRP A   1       1.066  23.662  15.262  0.00  0.00    +0.001 A 
ATOM      6  CZ2 TRP A   1       1.738  23.931  14.097  0.00  0.00    +0.017 A 
ATOM      7  CE2 TRP A   1       1.481  25.156  13.468  0.00  0.00    +0.056 A 
ATOM      8  NE1 TRP A   1       2.008  25.668  12.309  0.00  0.00    -0.352 N 
ATOM      9  HE1 TRP A   1       2.713  25.200  11.705  0.00  0.00    +0.166 HD
ATOM     10  CD1 TRP A   1       1.446  26.908  12.078  0.00  0.00    +0.068 A 
ENDROOT
BRANCH   1  11
ATOM     11  CB  TRP A   1      -0.254  28.482  13.117  0.00  0.00    +0.053 C 
BRANCH  11  12
ATOM     12  CA  TRP A   1      -0.132  29.390  14.365  0.00  0.00    +0.137 C 
BRANCH  12  13
ATOM     13  N   TRP A   1      -1.147  30.436  14.252  0.00  0.00    -0.239 NA
ATOM     14  H   TRP A   1      -1.914  30.304  13.562  0.00  0.00    +0.142 HD
ENDBRANCH  12  13
BRANCH  12  15
ATOM     15  C   TRP A   1       1.303  29.827  14.485  0.00  0.00    +0.224 C 
ATOM     16  O   TRP A   1       1.950  29.379  15.423  0.00  0.00    -0.287 OA
ENDBRANCH  12  15
ENDBRANCH  11  12
ENDBRANCH   1  11
TORSDOF 4
REMARK  Name = ../refined-set-2016/1qka/1qka_pocket.pdb
REMARK  281 active torsions:
REMARK  status: ('A' for Active; 'I' for Inactive)
REMARK    1  A    between atoms: _1  and  _3
REMARK    2  A    between atoms: _3  and  _4
REMARK    3  A    between atoms: _3  and  _6
REMARK    4  A    between atoms: _6  and  _7
REMARK    5  A    between atoms: _12  and  _14
REMARK    6  A    between atoms: _14  and  _15
REMARK    7  A    between atoms: _17  and  _19
REMARK    8  A    between atoms: _19  and  _20
REMARK    9  A    between atoms: _19  and  _22
REMARK   10  A    between atoms: _22  and  _23
REMARK   11  A    between atoms: _25  and  _27
REMARK   12  A    between atoms: _27  and  _28
REMARK   13  A    between atoms: _27  and  _30
REMARK   14  A    between atoms: _30  and  _31
REMARK   15  A    between atoms: _31  and  _32
REMARK   16  A    between atoms: _37  and  _39
REMARK   17  A    between atoms: _39  and  _40
REMARK   18  A    between atoms: _39  and  _42
REMARK   19  A    between atoms: _42  and  _43
REMARK   20  A    between atoms: _46  and  _48
REMARK   21  A    between atoms: _48  and  _49
REMARK   22  A    between atoms: _48  and  _51
REMARK   23  A    between atoms: _51  and  _52
REMARK   24  A    between atoms: _52  and  _53
REMARK   25  A    between atoms: _56  and  _58
REMARK   26  A    between atoms: _58  and  _59
REMARK   27  A    between atoms: _61  and  _63
REMARK   28  A    between atoms: _63  and  _64
REMARK   29  A    between atoms: _63  and  _66
REMARK   30  A    between atoms: _70  and  _71
REMARK   31  A    between atoms: _76  and  _78
REMARK   32  A    between atoms: _78  and  _79
REMARK   33  A    between atoms: _78  and  _81
REMARK   34  A    between atoms: _81  and  _82
REMARK   35  A    between atoms: _82  and  _83
REMARK   36  A    between atoms: _86  and  _88
REMARK   37  A    between atoms: _88  and  _89
REMARK   38  A    between atoms: _88  and  _91
REMARK   39  A    between atoms: _91  and  _92
REMARK   40  A    between atoms: _94  and  _96
REMARK   41  A    between atoms: _96  and  _97
REMARK   42  A    between atoms: _96  and  _99
REMARK   43  A    between atoms: _99  and  _100
REMARK   44  A    between atoms: _105  and  _107
REMARK   45  A    between atoms: _107  and  _108
REMARK   46  A    between atoms: _107  and  _110
REMARK   47  A    between atoms: _110  and  _111
REMARK   48  A    between atoms: _111  and  _112
REMARK   49  A    between atoms: _112  and  _113
REMARK   50  A    between atoms: _123  and  _124
REMARK   51  A    between atoms: _129  and  _131
REMARK   52  A    between atoms: _131  and  _132
REMARK   53  A    between atoms: _131  and  _134
REMARK   54  A    between atoms: _134  and  _135
REMARK   55  A    between atoms: _140  and  _141
REMARK   56  A    between atoms: _143  and  _145
REMARK   57  A    between atoms: _145  and  _146
REMARK   58  A    between atoms: _145  and  _148
REMARK   59  A    between atoms: _148  and  _149
REMARK   60  A    between atoms: _154  and  _155
REMARK   61  A    between atoms: _157  and  _159
REMARK   62  A    between atoms: _159  and  _160
REMARK   63  A    between atoms: _159  and  _162
REMARK   64  A    between atoms: _162  and  _163
REMARK   65  A    between atoms: _168  and  _169
REMARK   66  A    between atoms: _171  and  _173
REMARK   67  A    between atoms: _173  and  _174
REMARK   68  A    between atoms: _173  and  _176
REMARK   69  A    between atoms: _179  and  _181
REMARK   70  A    between atoms: _181  and  _182
REMARK   71  A    between atoms: _181  and  _184
REMARK   72  A    between atoms: _184  and  _185
REMARK   73  A    between atoms: _191  and  _192
REMARK   74  A    between atoms: _197  and  _199
REMARK   75  A    between atoms: _199  and  _200
REMARK   76  A    between atoms: _199  and  _202
REMARK   77  A    between atoms: _202  and  _203
REMARK   78  A    between atoms: _205  and  _207
REMARK   79  A    between atoms: _207  and  _208
REMARK   80  A    between atoms: _207  and  _210
REMARK   81  A    between atoms: _210  and  _211
REMARK   82  A    between atoms: _211  and  _212
REMARK   83  A    between atoms: _215  and  _217
REMARK   84  A    between atoms: _217  and  _218
REMARK   85  A    between atoms: _217  and  _220
REMARK   86  A    between atoms: _220  and  _221
REMARK   87  A    between atoms: _226  and  _227
REMARK   88  A    between atoms: _229  and  _231
REMARK   89  A    between atoms: _231  and  _232
REMARK   90  A    between atoms: _231  and  _234
REMARK   91  A    between atoms: _234  and  _235
REMARK   92  A    between atoms: _240  and  _242
REMARK   93  A    between atoms: _242  and  _243
REMARK   94  A    between atoms: _242  and  _245
REMARK   95  A    between atoms: _245  and  _246
REMARK   96  A    between atoms: _251  and  _253
REMARK   97  A    between atoms: _253  and  _254
REMARK   98  A    between atoms: _253  and  _256
REMARK   99  A    between atoms: _256  and  _257
REMARK  100  A    between atoms: _257  and  _258
REMARK  101  A    between atoms: _260  and  _262
REMARK  102  A    between atoms: _262  and  _263
REMARK  103  A    between atoms: _262  and  _265
REMARK  104  A    between atoms: _265  and  _266
REMARK  105  A    between atoms: _271  and  _272
REMARK  106  A    between atoms: _274  and  _276
REMARK  107  A    between atoms: _276  and  _277
REMARK  108  A    between atoms: _276  and  _279
REMARK  109  A    between atoms: _279  and  _280
REMARK  110  A    between atoms: _283  and  _285
REMARK  111  A    between atoms: _285  and  _286
REMARK  112  A    between atoms: _285  and  _288
REMARK  113  A    between atoms: _288  and  _289
REMARK  114  A    between atoms: _289  and  _497
REMARK  115  A    between atoms: _290  and  _292
REMARK  116  A    between atoms: _292  and  _293
REMARK  117  A    between atoms: _292  and  _295
REMARK  118  A    between atoms: _295  and  _296
REMARK  119  A    between atoms: _299  and  _301
REMARK  120  A    between atoms: _301  and  _302
REMARK  121  A    between atoms: _301  and  _304
REMARK  122  A    between atoms: _304  and  _305
REMARK  123  A    between atoms: _310  and  _311
REMARK  124  A    between atoms: _313  and  _315
REMARK  125  A    between atoms: _315  and  _316
REMARK  126  A    between atoms: _315  and  _318
REMARK  127  A    between atoms: _318  and  _319
REMARK  128  A    between atoms: _324  and  _325
REMARK  129  A    between atoms: _327  and  _329
REMARK  130  A    between atoms: _329  and  _330
REMARK  131  A    between atoms: _329  and  _332
REMARK  132  A    between atoms: _332  and  _333
REMARK  133  A    between atoms: _333  and  _334
REMARK  134  A    between atoms: _337  and  _339
REMARK  135  A    between atoms: _339  and  _340
REMARK  136  A    between atoms: _339  and  _342
REMARK  137  A    between atoms: _342  and  _343
REMARK  138  A    between atoms: _348  and  _349
REMARK  139  A    between atoms: _351  and  _353
REMARK  140  A    between atoms: _353  and  _354
REMARK  141  A    between atoms: _353  and  _356
REMARK  142  A    between atoms: _356  and  _357
REMARK  143  A    between atoms: _362  and  _364
REMARK  144  A    between atoms: _364  and  _365
REMARK  145  A    between atoms: _364  and  _367
REMARK  146  A    between atoms: _367  and  _368
REMARK  147  A    between atoms: _371  and  _373
REMARK  148  A    between atoms: _373  and  _374
REMARK  149  A    between atoms: _373  and  _376
REMARK  150  A    between atoms: _376  and  _377
REMARK  151  A    between atoms: _382  and  _384
REMARK  152  A    between atoms: _384  and  _385
REMARK  153  A    between atoms: _384  and  _387
REMARK  154  A    between atoms: _387  and  _388
REMARK  155  A    between atoms: _398  and  _400
REMARK  156  A    between atoms: _400  and  _401
REMARK  157  A    between atoms: _400  and  _403
REMARK  158  A    between atoms: _403  and  _404
REMARK  159  A    between atoms: _410  and  _412
REMARK  160  A    between atoms: _412  and  _413
REMARK  161  A    between atoms: _412  and  _415
REMARK  162  A    between atoms: _415  and  _416
REMARK  163  A    between atoms: _419  and  _421
REMARK  164  A    between atoms: _421  and  _422
REMARK  165  A    between atoms: _421  and  _424
REMARK  166  A    between atoms: _424  and  _425
REMARK  167  A    between atoms: _425  and  _426
REMARK  168  A    between atoms: _426  and  _427
REMARK  169  A    between atoms: _436  and  _438
REMARK  170  A    between atoms: _438  and  _439
REMARK  171  A    between atoms: _438  and  _441
REMARK  172  A    between atoms: _441  and  _442
REMARK  173  A    between atoms: _447  and  _449
REMARK  174  A    between atoms: _449  and  _450
REMARK  175  A    between atoms: _449  and  _452
REMARK  176  A    between atoms: _452  and  _453
REMARK  177  A    between atoms: _453  and  _454
REMARK  178  A    between atoms: _454  and  _455
REMARK  179  A    between atoms: _464  and  _466
REMARK  180  A    between atoms: _466  and  _467
REMARK  181  A    between atoms: _470  and  _472
REMARK  182  A    between atoms: _472  and  _473
REMARK  183  A    between atoms: _475  and  _477
REMARK  184  A    between atoms: _477  and  _478
REMARK  185  A    between atoms: _477  and  _480
REMARK  186  A    between atoms: _480  and  _481
REMARK  187  A    between atoms: _491  and  _493
REMARK  188  A    between atoms: _493  and  _494
REMARK  189  A    between atoms: _493  and  _496
REMARK  190  A    between atoms: _496  and  _497
REMARK  191  A    between atoms: _498  and  _500
REMARK  192  A    between atoms: _500  and  _501
REMARK  193  A    between atoms: _504  and  _506
REMARK  194  A    between atoms: _506  and  _507
REMARK  195  A    between atoms: _506  and  _509
REMARK  196  A    between atoms: _509  and  _510
REMARK  197  A    between atoms: _513  and  _515
REMARK  198  A    between atoms: _515  and  _516
REMARK  199  A    between atoms: _515  and  _518
REMARK  200  A    between atoms: _518  and  _519
REMARK  201  A    between atoms: _524  and  _525
REMARK  202  A    between atoms: _527  and  _529
REMARK  203  A    between atoms: _529  and  _530
REMARK  204  A    between atoms: _529  and  _532
REMARK  205  A    between atoms: _532  and  _533
REMARK  206  A    between atoms: _535  and  _537
REMARK  207  A    between atoms: _537  and  _538
REMARK  208  A    between atoms: _537  and  _540
REMARK  209  A    between atoms: _540  and  _541
REMARK  210  A    between atoms: _547  and  _549
REMARK  211  A    between atoms: _549  and  _550
REMARK  212  A    between atoms: _549  and  _552
REMARK  213  A    between atoms: _552  and  _553
REMARK  214  A    between atoms: _556  and  _558
REMARK  215  A    between atoms: _558  and  _559
REMARK  216  A    between atoms: _558  and  _561
REMARK  217  A    between atoms: _561  and  _562
REMARK  218  A    between atoms: _562  and  _563
REMARK  219  A    between atoms: _565  and  _567
REMARK  220  A    between atoms: _567  and  _568
REMARK  221  A    between atoms: _567  and  _570
REMARK  222  A    between atoms: _570  and  _571
REMARK  223  A    between atoms: _573  and  _575
REMARK  224  A    between atoms: _575  and  _576
REMARK  225  A    between atoms: _575  and  _578
REMARK  226  A    between atoms: _578  and  _579
REMARK  227  A    between atoms: _581  and  _583
REMARK  228  A    between atoms: _583  and  _584
REMARK  229  A    between atoms: _583  and  _586
REMARK  230  A    between atoms: _586  and  _587
REMARK  231  A    between atoms: _592  and  _594
REMARK  232  A    between atoms: _594  and  _595
REMARK  233  A    between atoms: _594  and  _597
REMARK  234  A    between atoms: _597  and  _598
REMARK  235  A    between atoms: _603  and  _605
REMARK  236  A    between atoms: _605  and  _606
REMARK  237  A    between atoms: _605  and  _608
REMARK  238  A    between atoms: _608  and  _609
REMARK  239  A    between atoms: _612  and  _614
REMARK  240  A    between atoms: _614  and  _615
REMARK  241  A    between atoms: _618  and  _620
REMARK  242  A    between atoms: _620  and  _621
REMARK  243  A    between atoms: _620  and  _623
REMARK  244  A    between atoms: _623  and  _624
REMARK  245  A    between atoms: _629  and  _631
REMARK  246  A    between atoms: _631  and  _632
REMARK  247  A    between atoms: _631  and  _634
REMARK  248  A    between atoms: _634  and  _635
REMARK  249  A    between atoms: _640  and  _641
REMARK  250  A    between atoms: _643  and  _645
REMARK  251  A    between atoms: _645  and  _646
REMARK  252  A    between atoms: _645  and  _648
REMARK  253  A    between atoms: _648  and  _649
REMARK  254  A    between atoms: _654  and  _655
REMARK  255  A    between atoms: _657  and  _659
REMARK  256  A    between atoms: _659  and  _660
REMARK  257  A    between atoms: _659  and  _662
REMARK  258  A    between atoms: _665  and  _667
REMARK  259  A    between atoms: _667  and  _668
REMARK  260  A    between atoms: _667  and  _670
REMARK  261  A    between atoms: _670  and  _671
REMARK  262  A    between atoms: _676  and  _678
REMARK  263  A    between atoms: _678  and  _679
REMARK  264  A    between atoms: _682  and  _684
REMARK  265  A    between atoms: _684  and  _685
REMARK  266  A    between atoms: _684  and  _687
REMARK  267  A    between atoms: _687  and  _688
REMARK  268  A    between atoms: _688  and  _689
REMARK  269  A    between atoms: _689  and  _690
REMARK  270  A    between atoms: _699  and  _701
REMARK  271  A    between atoms: _701  and  _702
REMARK  272  A    between atoms: _701  and  _704
REMARK  273  A    between atoms: _704  and  _705
REMARK  274  A    between atoms: _708  and  _710
REMARK  275  A    between atoms: _710  and  _711
REMARK  276  A    between atoms: _710  and  _713
REMARK  277  A    between atoms: _713  and  _714
REMARK  278  A    between atoms: _717  and  _719
REMARK  279  A    between atoms: _719  and  _720
REMARK  280  A    between atoms: _719  and  _722
REMARK  281  A    between atoms: _722  and  _723
REMARK                            x       y       z     vdW  Elec       q    Type
REMARK                         _______ _______ _______ _____ _____    ______ ____
ROOT
ATOM      1  C   PHE A   1       2.906  29.866  19.133  0.00  0.00    +0.239 C 
ATOM      2  O   PHE A   1       3.250  29.689  20.314  0.00  0.00    -0.274 OA
ATOM      3  N   LEU A   2       3.575  29.366  18.088  0.00  0.00    -0.298 N 
ATOM      4  H   LEU A   2       3.249  29.564  17.121  0.00  0.00    +0.150 HD
ENDROOT
BRANCH   1   5
ATOM      5  CA  PHE A   1       1.660  30.693  18.862  0.00  0.00    +0.149 C 
BRANCH   5   6
ATOM      6  N   PHE A   1       1.842  31.646  17.756  0.00  0.00    -0.238 NA
ATOM      7  H   PHE A   1       1.198  31.605  16.940  0.00  0.00    +0.142 HD
ENDBRANCH   5   6
BRANCH   5   8
ATOM      8  CB  PHE A   1       0.486  29.803  18.477  0.00  0.00    +0.053 C 
BRANCH   8   9
ATOM      9  CG  PHE A   1       0.132  28.605  19.283  0.00  0.00    -0.020 A 
ATOM     10  CD2 PHE A   1      -0.380  28.715  20.557  0.00  0.00    -0.004 A 
ATOM     11  CE2 PHE A   1      -0.732  27.587  21.295  0.00  0.00    -0.000 A 
ATOM     12  CZ  PHE A   1      -0.546  26.336  20.732  0.00  0.00    -0.000 A 
ATOM     13  CE1 PHE A   1      -0.015  26.196  19.464  0.00  0.00    -0.000 A 
ATOM     14  CD1 PHE A   1       0.321  27.336  18.741  0.00  0.00    -0.004 A 
ENDBRANCH   8   9
ENDBRANCH   5   8
ENDBRANCH   1   5
BRANCH   3  15
ATOM     15  CA  LEU A   2       4.767  28.539  18.303  0.00  0.00    +0.137 C 
BRANCH  15  16
ATOM     16  C   LEU A   2       5.898  29.401  18.862  0.00  0.00    +0.227 C 
ATOM     17  O   LEU A   2       6.609  29.000  19.770  0.00  0.00    -0.286 OA
ENDBRANCH  15  16
BRANCH  15  18
ATOM     18  CB  LEU A   2       5.197  27.830  17.008  0.00  0.00    +0.028 C 
BRANCH  18  19
ATOM     19  CG  LEU A   2       4.160  26.809  16.501  0.00  0.00    +0.002 C 
ATOM     20  CD2 LEU A   2       3.796  25.744  17.546  0.00  0.00    +0.000 C 
ATOM     21  CD1 LEU A   2       4.713  26.126  15.255  0.00  0.00    +0.000 C 
ENDBRANCH  18  19
ENDBRANCH  15  18
ENDBRANCH   3  15
TORSDOF 8
REMARK  Name = ../refined-set-2016/1qka/1qka_pocket.pdb
REMARK  281 active torsions:
REMARK  status: ('A' for Active; 'I' for Inactive)
REMARK    1  A    between atoms: _1  and  _3
REMARK    2  A    between atoms: _3  and  _4
REMARK    3  A    between atoms: _3  and  _6
REMARK    4  A    between atoms: _6  and  _7
REMARK    5  A    between atoms: _12  and  _14
REMARK    6  A    between atoms: _14  and  _15
REMARK    7  A    between atoms: _17  and  _19
REMARK    8  A    between atoms: _19  and  _20
REMARK    9  A    between atoms: _19  and  _22
REMARK   10  A    between atoms: _22  and  _23
REMARK   11  A    between atoms: _25  and  _27
REMARK   12  A    between atoms: _27  and  _28
REMARK   13  A    between atoms: _27  and  _30
REMARK   14  A    between atoms: _30  and  _31
REMARK   15  A    between atoms: _31  and  _32
REMARK   16  A    between atoms: _37  and  _39
REMARK   17  A    between atoms: _39  and  _40
REMARK   18  A    between atoms: _39  and  _42
REMARK   19  A    between atoms: _42  and  _43
REMARK   20  A    between atoms: _46  and  _48
REMARK   21  A    between atoms: _48  and  _49
REMARK   22  A    between atoms: _48  and  _51
REMARK   23  A    between atoms: _51  and  _52
REMARK   24  A    between atoms: _52  and  _53
REMARK   25  A    between atoms: _56  and  _58
REMARK   26  A    between atoms: _58  and  _59
REMARK   27  A    between atoms: _61  and  _63
REMARK   28  A    between atoms: _63  and  _64
REMARK   29  A    between atoms: _63  and  _66
REMARK   30  A    between atoms: _70  and  _71
REMARK   31  A    between atoms: _76  and  _78
REMARK   32  A    between atoms: _78  and  _79
REMARK   33  A    between atoms: _78  and  _81
REMARK   34  A    between atoms: _81  and  _82
REMARK   35  A    between atoms: _82  and  _83
REMARK   36  A    between atoms: _86  and  _88
REMARK   37  A    between atoms: _88  and  _89
REMARK   38  A    between atoms: _88  and  _91
REMARK   39  A    between atoms: _91  and  _92
REMARK   40  A    between atoms: _94  and  _96
REMARK   41  A    between atoms: _96  and  _97
REMARK   42  A    between atoms: _96  and  _99
REMARK   43  A    between atoms: _99  and  _100
REMARK   44  A    between atoms: _105  and  _107
REMARK   45  A    between atoms: _107  and  _108
REMARK   46  A    between atoms: _107  and  _110
REMARK   47  A    between atoms: _110  and  _111
REMARK   48  A    between atoms: _111  and  _112
REMARK   49  A    between atoms: _112  and  _113
REMARK   50  A    between atoms: _123  and  _124
REMARK   51  A    between atoms: _129  and  _131
REMARK   52  A    between atoms: _131  and  _132
REMARK   53  A    between atoms: _131  and  _134
REMARK   54  A    between atoms: _134  and  _135
REMARK   55  A    between atoms: _140  and  _141
REMARK   56  A    between atoms: _143  and  _145
REMARK   57  A    between atoms: _145  and  _146
REMARK   58  A    between atoms: _145  and  _148
REMARK   59  A    between atoms: _148  and  _149
REMARK   60  A    between atoms: _154  and  _155
REMARK   61  A    between atoms: _157  and  _159
REMARK   62  A    between atoms: _159  and  _160
REMARK   63  A    between atoms: _159  and  _162
REMARK   64  A    between atoms: _162  and  _163
REMARK   65  A    between atoms: _168  and  _169
REMARK   66  A    between atoms: _171  and  _173
REMARK   67  A    between atoms: _173  and  _174
REMARK   68  A    between atoms: _173  and  _176
REMARK   69  A    between atoms: _179  and  _181
REMARK   70  A    between atoms: _181  and  _182
REMARK   71  A    between atoms: _181  and  _184
REMARK   72  A    between atoms: _184  and  _185
REMARK   73  A    between atoms: _191  and  _192
REMARK   74  A    between atoms: _197  and  _199
REMARK   75  A    between atoms: _199  and  _200
REMARK   76  A    between atoms: _199  and  _202
REMARK   77  A    between atoms: _202  and  _203
REMARK   78  A    between atoms: _205  and  _207
REMARK   79  A    between atoms: _207  and  _208
REMARK   80  A    between atoms: _207  and  _210
REMARK   81  A    between atoms: _210  and  _211
REMARK   82  A    between atoms: _211  and  _212
REMARK   83  A    between atoms: _215  and  _217
REMARK   84  A    between atoms: _217  and  _218
REMARK   85  A    between atoms: _217  and  _220
REMARK   86  A    between atoms: _220  and  _221
REMARK   87  A    between atoms: _226  and  _227
REMARK   88  A    between atoms: _229  and  _231
REMARK   89  A    between atoms: _231  and  _232
REMARK   90  A    between atoms: _231  and  _234
REMARK   91  A    between atoms: _234  and  _235
REMARK   92  A    between atoms: _240  and  _242
REMARK   93  A    between atoms: _242  and  _243
REMARK   94  A    between atoms: _242  and  _245
REMARK   95  A    between atoms: _245  and  _246
REMARK   96  A    between atoms: _251  and  _253
REMARK   97  A    between atoms: _253  and  _254
REMARK   98  A    between atoms: _253  and  _256
REMARK   99  A    between atoms: _256  and  _257
REMARK  100  A    between atoms: _257  and  _258
REMARK  101  A    between atoms: _260  and  _262
REMARK  102  A    between atoms: _262  and  _263
REMARK  103  A    between atoms: _262  and  _265
REMARK  104  A    between atoms: _265  and  _266
REMARK  105  A    between atoms: _271  and  _272
REMARK  106  A    between atoms: _274  and  _276
REMARK  107  A    between atoms: _276  and  _277
REMARK  108  A    between atoms: _276  and  _279
REMARK  109  A    between atoms: _279  and  _280
REMARK  110  A    between atoms: _283  and  _285
REMARK  111  A    between atoms: _285  and  _286
REMARK  112  A    between atoms: _285  and  _288
REMARK  113  A    between atoms: _288  and  _289
REMARK  114  A    between atoms: _289  and  _497
REMARK  115  A    between atoms: _290  and  _292
REMARK  116  A    between atoms: _292  and  _293
REMARK  117  A    between atoms: _292  and  _295
REMARK  118  A    between atoms: _295  and  _296
REMARK  119  A    between atoms: _299  and  _301
REMARK  120  A    between atoms: _301  and  _302
REMARK  121  A    between atoms: _301  and  _304
REMARK  122  A    between atoms: _304  and  _305
REMARK  123  A    between atoms: _310  and  _311
REMARK  124  A    between atoms: _313  and  _315
REMARK  125  A    between atoms: _315  and  _316
REMARK  126  A    between atoms: _315  and  _318
REMARK  127  A    between atoms: _318  and  _319
REMARK  128  A    between atoms: _324  and  _325
REMARK  129  A    between atoms: _327  and  _329
REMARK  130  A    between atoms: _329  and  _330
REMARK  131  A    between atoms: _329  and  _332
REMARK  132  A    between atoms: _332  and  _333
REMARK  133  A    between atoms: _333  and  _334
REMARK  134  A    between atoms: _337  and  _339
REMARK  135  A    between atoms: _339  and  _340
REMARK  136  A    between atoms: _339  and  _342
REMARK  137  A    between atoms: _342  and  _343
REMARK  138  A    between atoms: _348  and  _349
REMARK  139  A    between atoms: _351  and  _353
REMARK  140  A    between atoms: _353  and  _354
REMARK  141  A    between atoms: _353  and  _356
REMARK  142  A    between atoms: _356  and  _357
REMARK  143  A    between atoms: _362  and  _364
REMARK  144  A    between atoms: _364  and  _365
REMARK  145  A    between atoms: _364  and  _367
REMARK  146  A    between atoms: _367  and  _368
REMARK  147  A    between atoms: _371  and  _373
REMARK  148  A    between atoms: _373  and  _374
REMARK  149  A    between atoms: _373  and  _376
REMARK  150  A    between atoms: _376  and  _377
REMARK  151  A    between atoms: _382  and  _384
REMARK  152  A    between atoms: _384  and  _385
REMARK  153  A    between atoms: _384  and  _387
REMARK  154  A    between atoms: _387  and  _388
REMARK  155  A    between atoms: _398  and  _400
REMARK  156  A    between atoms: _400  and  _401
REMARK  157  A    between atoms: _400  and  _403
REMARK  158  A    between atoms: _403  and  _404
REMARK  159  A    between atoms: _410  and  _412
REMARK  160  A    between atoms: _412  and  _413
REMARK  161  A    between atoms: _412  and  _415
REMARK  162  A    between atoms: _415  and  _416
REMARK  163  A    between atoms: _419  and  _421
REMARK  164  A    between atoms: _421  and  _422
REMARK  165  A    between atoms: _421  and  _424
REMARK  166  A    between atoms: _424  and  _425
REMARK  167  A    between atoms: _425  and  _426
REMARK  168  A    between atoms: _426  and  _427
REMARK  169  A    between atoms: _436  and  _438
REMARK  170  A    between atoms: _438  and  _439
REMARK  171  A    between atoms: _438  and  _441
REMARK  172  A    between atoms: _441  and  _442
REMARK  173  A    between atoms: _447  and  _449
REMARK  174  A    between atoms: _449  and  _450
REMARK  175  A    between atoms: _449  and  _452
REMARK  176  A    between atoms: _452  and  _453
REMARK  177  A    between atoms: _453  and  _454
REMARK  178  A    between atoms: _454  and  _455
REMARK  179  A    between atoms: _464  and  _466
REMARK  180  A    between atoms: _466  and  _467
REMARK  181  A    between atoms: _470  and  _472
REMARK  182  A    between atoms: _472  and  _473
REMARK  183  A    between atoms: _475  and  _477
REMARK  184  A    between atoms: _477  and  _478
REMARK  185  A    between atoms: _477  and  _480
REMARK  186  A    between atoms: _480  and  _481
REMARK  187  A    between atoms: _491  and  _493
REMARK  188  A    between atoms: _493  and  _494
REMARK  189  A    between atoms: _493  and  _496
REMARK  190  A    between atoms: _496  and  _497
REMARK  191  A    between atoms: _498  and  _500
REMARK  192  A    between atoms: _500  and  _501
REMARK  193  A    between atoms: _504  and  _506
REMARK  194  A    between atoms: _506  and  _507
REMARK  195  A    between atoms: _506  and  _509
REMARK  196  A    between atoms: _509  and  _510
REMARK  197  A    between atoms: _513  and  _515
REMARK  198  A    between atoms: _515  and  _516
REMARK  199  A    between atoms: _515  and  _518
REMARK  200  A    between atoms: _518  and  _519
REMARK  201  A    between atoms: _524  and  _525
REMARK  202  A    between atoms: _527  and  _529
REMARK  203  A    between atoms: _529  and  _530
REMARK  204  A    between atoms: _529  and  _532
REMARK  205  A    between atoms: _532  and  _533
REMARK  206  A    between atoms: _535  and  _537
REMARK  207  A    between atoms: _537  and  _538
REMARK  208  A    between atoms: _537  and  _540
REMARK  209  A    between atoms: _540  and  _541
REMARK  210  A    between atoms: _547  and  _549
REMARK  211  A    between atoms: _549  and  _550
REMARK  212  A    between atoms: _549  and  _552
REMARK  213  A    between atoms: _552  and  _553
REMARK  214  A    between atoms: _556  and  _558
REMARK  215  A    between atoms: _558  and  _559
REMARK  216  A    between atoms: _558  and  _561
REMARK  217  A    between atoms: _561  and  _562
REMARK  218  A    between atoms: _562  and  _563
REMARK  219  A    between atoms: _565  and  _567
REMARK  220  A    between atoms: _567  and  _568
REMARK  221  A    between atoms: _567  and  _570
REMARK  222  A    between atoms: _570  and  _571
REMARK  223  A    between atoms: _573  and  _575
REMARK  224  A    between atoms: _575  and  _576
REMARK  225  A    between atoms: _575  and  _578
REMARK  226  A    between atoms: _578  and  _579
REMARK  227  A    between atoms: _581  and  _583
REMARK  228  A    between atoms: _583  and  _584
REMARK  229  A    between atoms: _583  and  _586
REMARK  230  A    between atoms: _586  and  _587
REMARK  231  A    between atoms: _592  and  _594
REMARK  232  A    between atoms: _594  and  _595
REMARK  233  A    between atoms: _594  and  _597
REMARK  234  A    between atoms: _597  and  _598
REMARK  235  A    between atoms: _603  and  _605
REMARK  236  A    between atoms: _605  and  _606
REMARK  237  A    between atoms: _605  and  _608
REMARK  238  A    between atoms: _608  and  _609
REMARK  239  A    between atoms: _612  and  _614
REMARK  240  A    between atoms: _614  and  _615
REMARK  241  A    between atoms: _618  and  _620
REMARK  242  A    between atoms: _620  and  _621
REMARK  243  A    between atoms: _620  and  _623
REMARK  244  A    between atoms: _623  and  _624
REMARK  245  A    between atoms: _629  and  _631
REMARK  246  A    between atoms: _631  and  _632
REMARK  247  A    between atoms: _631  and  _634
REMARK  248  A    between atoms: _634  and  _635
REMARK  249  A    between atoms: _640  and  _641
REMARK  250  A    between atoms: _643  and  _645
REMARK  251  A    between atoms: _645  and  _646
REMARK  252  A    between atoms: _645  and  _648
REMARK  253  A    between atoms: _648  and  _649
REMARK  254  A    between atoms: _654  and  _655
REMARK  255  A    between atoms: _657  and  _659
REMARK  256  A    between atoms: _659  and  _660
REMARK  257  A    between atoms: _659  and  _662
REMARK  258  A    between atoms: _665  and  _667
REMARK  259  A    between atoms: _667  and  _668
REMARK  260  A    between atoms: _667  and  _670
REMARK  261  A    between atoms: _670  and  _671
REMARK  262  A    between atoms: _676  and  _678
REMARK  263  A    between atoms: _678  and  _679
REMARK  264  A    between atoms: _682  and  _684
REMARK  265  A    between atoms: _684  and  _685
REMARK  266  A    between atoms: _684  and  _687
REMARK  267  A    between atoms: _687  and  _688
REMARK  268  A    between atoms: _688  and  _689
REMARK  269  A    between atoms: _689  and  _690
REMARK  270  A    between atoms: _699  and  _701
REMARK  271  A    between atoms: _701  and  _702
REMARK  272  A    between atoms: _701  and  _704
REMARK  273  A    between atoms: _704  and  _705
REMARK  274  A    between atoms: _708  and  _710
REMARK  275  A    between atoms: _710  and  _711
REMARK  276  A    between atoms: _710  and  _713
REMARK  277  A    between atoms: _713  and  _714
REMARK  278  A    between atoms: _717  and  _719
REMARK  279  A    between atoms: _719  and  _720
REMARK  280  A    between atoms: _719  and  _722
REMARK  281  A    between atoms: _722  and  _723
REMARK                            x       y       z     vdW  Elec       q    Type
REMARK                         _______ _______ _______ _____ _____    ______ ____
ROOT
ATOM      1  CA  ARG A   1       5.810  28.827  23.416  0.00  0.00    +0.145 C 
ENDROOT
BRANCH   1   2
ATOM      2  C   ARG A   1       7.330  28.712  23.497  0.00  0.00    +0.238 C 
ATOM      3  O   ARG A   1       7.811  28.468  24.604  0.00  0.00    -0.274 OA
ATOM      4  N   HIS A   2       8.028  28.910  22.387  0.00  0.00    -0.298 N 
ATOM      5  H   HIS A   2       7.544  29.080  21.482  0.00  0.00    +0.150 HD
BRANCH   4   6
ATOM      6  CA  HIS A   2       9.490  28.886  22.455  0.00  0.00    +0.143 C 
BRANCH   6   7
ATOM      7  C   HIS A   2      10.019  29.990  23.357  0.00  0.00    +0.227 C 
ATOM      8  O   HIS A   2      10.961  29.723  24.112  0.00  0.00    -0.286 OA
ENDBRANCH   6   7
BRANCH   6   9
ATOM      9  CB  HIS A   2      10.125  28.980  21.070  0.00  0.00    +0.075 C 
BRANCH   9  10
ATOM     10  CG  HIS A   2      10.060  27.631  20.382  0.00  0.00    +0.082 A 
ATOM     11  ND1 HIS A   2      10.972  26.639  20.658  0.00  0.00    -0.227 NA
ATOM     12  CE1 HIS A   2      10.669  25.556  19.945  0.00  0.00    +0.199 A 
ATOM     13  NE2 HIS A   2       9.599  25.833  19.232  0.00  0.00    -0.221 NA
ATOM     14  CD2 HIS A   2       9.177  27.125  19.492  0.00  0.00    +0.115 A 
ENDBRANCH   9  10
ENDBRANCH   6   9
ENDBRANCH   4   6
ENDBRANCH   1   2
BRANCH   1  15
ATOM     15  N   ARG A   1       5.449  29.983  22.602  0.00  0.00    -0.238 NA
ATOM     16  H   ARG A   1       4.962  29.833  21.695  0.00  0.00    +0.142 HD
ENDBRANCH   1  15
BRANCH   1  17
ATOM     17  CB  ARG A   1       5.163  27.558  22.857  0.00  0.00    +0.030 C 
BRANCH  17  18
ATOM     18  CG  ARG A   1       3.641  27.664  23.033  0.00  0.00    +0.045 C 
BRANCH  18  19
ATOM     19  CD  ARG A   1       2.926  26.642  22.156  0.00  0.00    +0.174 C 
BRANCH  19  20
ATOM     20  NE  ARG A   1       3.396  25.299  22.477  0.00  0.00    -0.265 N 
ATOM     21  HE  ARG A   1       3.961  25.184  23.343  0.00  0.00    +0.259 HD
ATOM     22  CZ  ARG A   1       3.163  24.221  21.759  0.00  0.00    +0.342 C 
ATOM     23  NH2 ARG A   1       3.612  23.008  22.128  0.00  0.00    -0.292 N 
ATOM     24 HH21 ARG A   1       4.162  22.901  23.005  0.00  0.00    +0.255 HD
ATOM     25 HH22 ARG A   1       3.410  22.177  21.537  0.00  0.00    +0.255 HD
ATOM     26  NH1 ARG A   1       2.477  24.337  20.627  0.00  0.00    -0.292 N 
ATOM     27 HH11 ARG A   1       2.133  25.269  20.321  0.00  0.00    +0.255 HD
ATOM     28 HH12 ARG A   1       2.284  23.495  20.047  0.00  0.00    +0.255 HD
ENDBRANCH  19  20
ENDBRANCH  18  19
ENDBRANCH  17  18
ENDBRANCH   1  17
TORSDOF 10
REMARK  Name = ../refined-set-2016/1qka/1qka_pocket.pdb
REMARK  281 active torsions:
REMARK  status: ('A' for Active; 'I' for Inactive)
REMARK    1  A    between atoms: _1  and  _3
REMARK    2  A    between atoms: _3  and  _4
REMARK    3  A    between atoms: _3  and  _6
REMARK    4  A    between atoms: _6  and  _7
REMARK    5  A    between atoms: _12  and  _14
REMARK    6  A    between atoms: _14  and  _15
REMARK    7  A    between atoms: _17  and  _19
REMARK    8  A    between atoms: _19  and  _20
REMARK    9  A    between atoms: _19  and  _22
REMARK   10  A    between atoms: _22  and  _23
REMARK   11  A    between atoms: _25  and  _27
REMARK   12  A    between atoms: _27  and  _28
REMARK   13  A    between atoms: _27  and  _30
REMARK   14  A    between atoms: _30  and  _31
REMARK   15  A    between atoms: _31  and  _32
REMARK   16  A    between atoms: _37  and  _39
REMARK   17  A    between atoms: _39  and  _40
REMARK   18  A    between atoms: _39  and  _42
REMARK   19  A    between atoms: _42  and  _43
REMARK   20  A    between atoms: _46  and  _48
REMARK   21  A    between atoms: _48  and  _49
REMARK   22  A    between atoms: _48  and  _51
REMARK   23  A    between atoms: _51  and  _52
REMARK   24  A    between atoms: _52  and  _53
REMARK   25  A    between atoms: _56  and  _58
REMARK   26  A    between atoms: _58  and  _59
REMARK   27  A    between atoms: _61  and  _63
REMARK   28  A    between atoms: _63  and  _64
REMARK   29  A    between atoms: _63  and  _66
REMARK   30  A    between atoms: _70  and  _71
REMARK   31  A    between atoms: _76  and  _78
REMARK   32  A    between atoms: _78  and  _79
REMARK   33  A    between atoms: _78  and  _81
REMARK   34  A    between atoms: _81  and  _82
REMARK   35  A    between atoms: _82  and  _83
REMARK   36  A    between atoms: _86  and  _88
REMARK   37  A    between atoms: _88  and  _89
REMARK   38  A    between atoms: _88  and  _91
REMARK   39  A    between atoms: _91  and  _92
REMARK   40  A    between atoms: _94  and  _96
REMARK   41  A    between atoms: _96  and  _97
REMARK   42  A    between atoms: _96  and  _99
REMARK   43  A    between atoms: _99  and  _100
REMARK   44  A    between atoms: _105  and  _107
REMARK   45  A    between atoms: _107  and  _108
REMARK   46  A    between atoms: _107  and  _110
REMARK   47  A    between atoms: _110  and  _111
REMARK   48  A    between atoms: _111  and  _112
REMARK   49  A    between atoms: _112  and  _113
REMARK   50  A    between atoms: _123  and  _124
REMARK   51  A    between atoms: _129  and  _131
REMARK   52  A    between atoms: _131  and  _132
REMARK   53  A    between atoms: _131  and  _134
REMARK   54  A    between atoms: _134  and  _135
REMARK   55  A    between atoms: _140  and  _141
REMARK   56  A    between atoms: _143  and  _145
REMARK   57  A    between atoms: _145  and  _146
REMARK   58  A    between atoms: _145  and  _148
REMARK   59  A    between atoms: _148  and  _149
REMARK   60  A    between atoms: _154  and  _155
REMARK   61  A    between atoms: _157  and  _159
REMARK   62  A    between atoms: _159  and  _160
REMARK   63  A    between atoms: _159  and  _162
REMARK   64  A    between atoms: _162  and  _163
REMARK   65  A    between atoms: _168  and  _169
REMARK   66  A    between atoms: _171  and  _173
REMARK   67  A    between atoms: _173  and  _174
REMARK   68  A    between atoms: _173  and  _176
REMARK   69  A    between atoms: _179  and  _181
REMARK   70  A    between atoms: _181  and  _182
REMARK   71  A    between atoms: _181  and  _184
REMARK   72  A    between atoms: _184  and  _185
REMARK   73  A    between atoms: _191  and  _192
REMARK   74  A    between atoms: _197  and  _199
REMARK   75  A    between atoms: _199  and  _200
REMARK   76  A    between atoms: _199  and  _202
REMARK   77  A    between atoms: _202  and  _203
REMARK   78  A    between atoms: _205  and  _207
REMARK   79  A    between atoms: _207  and  _208
REMARK   80  A    between atoms: _207  and  _210
REMARK   81  A    between atoms: _210  and  _211
REMARK   82  A    between atoms: _211  and  _212
REMARK   83  A    between atoms: _215  and  _217
REMARK   84  A    between atoms: _217  and  _218
REMARK   85  A    between atoms: _217  and  _220
REMARK   86  A    between atoms: _220  and  _221
REMARK   87  A    between atoms: _226  and  _227
REMARK   88  A    between atoms: _229  and  _231
REMARK   89  A    between atoms: _231  and  _232
REMARK   90  A    between atoms: _231  and  _234
REMARK   91  A    between atoms: _234  and  _235
REMARK   92  A    between atoms: _240  and  _242
REMARK   93  A    between atoms: _242  and  _243
REMARK   94  A    between atoms: _242  and  _245
REMARK   95  A    between atoms: _245  and  _246
REMARK   96  A    between atoms: _251  and  _253
REMARK   97  A    between atoms: _253  and  _254
REMARK   98  A    between atoms: _253  and  _256
REMARK   99  A    between atoms: _256  and  _257
REMARK  100  A    between atoms: _257  and  _258
REMARK  101  A    between atoms: _260  and  _262
REMARK  102  A    between atoms: _262  and  _263
REMARK  103  A    between atoms: _262  and  _265
REMARK  104  A    between atoms: _265  and  _266
REMARK  105  A    between atoms: _271  and  _272
REMARK  106  A    between atoms: _274  and  _276
REMARK  107  A    between atoms: _276  and  _277
REMARK  108  A    between atoms: _276  and  _279
REMARK  109  A    between atoms: _279  and  _280
REMARK  110  A    between atoms: _283  and  _285
REMARK  111  A    between atoms: _285  and  _286
REMARK  112  A    between atoms: _285  and  _288
REMARK  113  A    between atoms: _288  and  _289
REMARK  114  A    between atoms: _289  and  _497
REMARK  115  A    between atoms: _290  and  _292
REMARK  116  A    between atoms: _292  and  _293
REMARK  117  A    between atoms: _292  and  _295
REMARK  118  A    between atoms: _295  and  _296
REMARK  119  A    between atoms: _299  and  _301
REMARK  120  A    between atoms: _301  and  _302
REMARK  121  A    between atoms: _301  and  _304
REMARK  122  A    between atoms: _304  and  _305
REMARK  123  A    between atoms: _310  and  _311
REMARK  124  A    between atoms: _313  and  _315
REMARK  125  A    between atoms: _315  and  _316
REMARK  126  A    between atoms: _315  and  _318
REMARK  127  A    between atoms: _318  and  _319
REMARK  128  A    between atoms: _324  and  _325
REMARK  129  A    between atoms: _327  and  _329
REMARK  130  A    between atoms: _329  and  _330
REMARK  131  A    between atoms: _329  and  _332
REMARK  132  A    between atoms: _332  and  _333
REMARK  133  A    between atoms: _333  and  _334
REMARK  134  A    between atoms: _337  and  _339
REMARK  135  A    between atoms: _339  and  _340
REMARK  136  A    between atoms: _339  and  _342
REMARK  137  A    between atoms: _342  and  _343
REMARK  138  A    between atoms: _348  and  _349
REMARK  139  A    between atoms: _351  and  _353
REMARK  140  A    between atoms: _353  and  _354
REMARK  141  A    between atoms: _353  and  _356
REMARK  142  A    between atoms: _356  and  _357
REMARK  143  A    between atoms: _362  and  _364
REMARK  144  A    between atoms: _364  and  _365
REMARK  145  A    between atoms: _364  and  _367
REMARK  146  A    between atoms: _367  and  _368
REMARK  147  A    between atoms: _371  and  _373
REMARK  148  A    between atoms: _373  and  _374
REMARK  149  A    between atoms: _373  and  _376
REMARK  150  A    between atoms: _376  and  _377
REMARK  151  A    between atoms: _382  and  _384
REMARK  152  A    between atoms: _384  and  _385
REMARK  153  A    between atoms: _384  and  _387
REMARK  154  A    between atoms: _387  and  _388
REMARK  155  A    between atoms: _398  and  _400
REMARK  156  A    between atoms: _400  and  _401
REMARK  157  A    between atoms: _400  and  _403
REMARK  158  A    between atoms: _403  and  _404
REMARK  159  A    between atoms: _410  and  _412
REMARK  160  A    between atoms: _412  and  _413
REMARK  161  A    between atoms: _412  and  _415
REMARK  162  A    between atoms: _415  and  _416
REMARK  163  A    between atoms: _419  and  _421
REMARK  164  A    between atoms: _421  and  _422
REMARK  165  A    between atoms: _421  and  _424
REMARK  166  A    between atoms: _424  and  _425
REMARK  167  A    between atoms: _425  and  _426
REMARK  168  A    between atoms: _426  and  _427
REMARK  169  A    between atoms: _436  and  _438
REMARK  170  A    between atoms: _438  and  _439
REMARK  171  A    between atoms: _438  and  _441
REMARK  172  A    between atoms: _441  and  _442
REMARK  173  A    between atoms: _447  and  _449
REMARK  174  A    between atoms: _449  and  _450
REMARK  175  A    between atoms: _449  and  _452
REMARK  176  A    between atoms: _452  and  _453
REMARK  177  A    between atoms: _453  and  _454
REMARK  178  A    between atoms: _454  and  _455
REMARK  179  A    between atoms: _464  and  _466
REMARK  180  A    between atoms: _466  and  _467
REMARK  181  A    between atoms: _470  and  _472
REMARK  182  A    between atoms: _472  and  _473
REMARK  183  A    between atoms: _475  and  _477
REMARK  184  A    between atoms: _477  and  _478
REMARK  185  A    between atoms: _477  and  _480
REMARK  186  A    between atoms: _480  and  _481
REMARK  187  A    between atoms: _491  and  _493
REMARK  188  A    between atoms: _493  and  _494
REMARK  189  A    between atoms: _493  and  _496
REMARK  190  A    between atoms: _496  and  _497
REMARK  191  A    between atoms: _498  and  _500
REMARK  192  A    between atoms: _500  and  _501
REMARK  193  A    between atoms: _504  and  _506
REMARK  194  A    between atoms: _506  and  _507
REMARK  195  A    between atoms: _506  and  _509
REMARK  196  A    between atoms: _509  and  _510
REMARK  197  A    between atoms: _513  and  _515
REMARK  198  A    between atoms: _515  and  _516
REMARK  199  A    between atoms: _515  and  _518
REMARK  200  A    between atoms: _518  and  _519
REMARK  201  A    between atoms: _524  and  _525
REMARK  202  A    between atoms: _527  and  _529
REMARK  203  A    between atoms: _529  and  _530
REMARK  204  A    between atoms: _529  and  _532
REMARK  205  A    between atoms: _532  and  _533
REMARK  206  A    between atoms: _535  and  _537
REMARK  207  A    between atoms: _537  and  _538
REMARK  208  A    between atoms: _537  and  _540
REMARK  209  A    between atoms: _540  and  _541
REMARK  210  A    between atoms: _547  and  _549
REMARK  211  A    between atoms: _549  and  _550
REMARK  212  A    between atoms: _549  and  _552
REMARK  213  A    between atoms: _552  and  _553
REMARK  214  A    between atoms: _556  and  _558
REMARK  215  A    between atoms: _558  and  _559
REMARK  216  A    between atoms: _558  and  _561
REMARK  217  A    between atoms: _561  and  _562
REMARK  218  A    between atoms: _562  and  _563
REMARK  219  A    between atoms: _565  and  _567
REMARK  220  A    between atoms: _567  and  _568
REMARK  221  A    between atoms: _567  and  _570
REMARK  222  A    between atoms: _570  and  _571
REMARK  223  A    between atoms: _573  and  _575
REMARK  224  A    between atoms: _575  and  _576
REMARK  225  A    between atoms: _575  and  _578
REMARK  226  A    between atoms: _578  and  _579
REMARK  227  A    between atoms: _581  and  _583
REMARK  228  A    between atoms: _583  and  _584
REMARK  229  A    between atoms: _583  and  _586
REMARK  230  A    between atoms: _586  and  _587
REMARK  231  A    between atoms: _592  and  _594
REMARK  232  A    between atoms: _594  and  _595
REMARK  233  A    between atoms: _594  and  _597
REMARK  234  A    between atoms: _597  and  _598
REMARK  235  A    between atoms: _603  and  _605
REMARK  236  A    between atoms: _605  and  _606
REMARK  237  A    between atoms: _605  and  _608
REMARK  238  A    between atoms: _608  and  _609
REMARK  239  A    between atoms: _612  and  _614
REMARK  240  A    between atoms: _614  and  _615
REMARK  241  A    between atoms: _618  and  _620
REMARK  242  A    between atoms: _620  and  _621
REMARK  243  A    between atoms: _620  and  _623
REMARK  244  A    between atoms: _623  and  _624
REMARK  245  A    between atoms: _629  and  _631
REMARK  246  A    between atoms: _631  and  _632
REMARK  247  A    between atoms: _631  and  _634
REMARK  248  A    between atoms: _634  and  _635
REMARK  249  A    between atoms: _640  and  _641
REMARK  250  A    between atoms: _643  and  _645
REMARK  251  A    between atoms: _645  and  _646
REMARK  252  A    between atoms: _645  and  _648
REMARK  253  A    between atoms: _648  and  _649
REMARK  254  A    between atoms: _654  and  _655
REMARK  255  A    between atoms: _657  and  _659
REMARK  256  A    between atoms: _659  and  _660
REMARK  257  A    between atoms: _659  and  _662
REMARK  258  A    between atoms: _665  and  _667
REMARK  259  A    between atoms: _667  and  _668
REMARK  260  A    between atoms: _667  and  _670
REMARK  261  A    between atoms: _670  and  _671
REMARK  262  A    between atoms: _676  and  _678
REMARK  263  A    between atoms: _678  and  _679
REMARK  264  A    between atoms: _682  and  _684
REMARK  265  A    between atoms: _684  and  _685
REMARK  266  A    between atoms: _684  and  _687
REMARK  267  A    between atoms: _687  and  _688
REMARK  268  A    between atoms: _688  and  _689
REMARK  269  A    between atoms: _689  and  _690
REMARK  270  A    between atoms: _699  and  _701
REMARK  271  A    between atoms: _701  and  _702
REMARK  272  A    between atoms: _701  and  _704
REMARK  273  A    between atoms: _704  and  _705
REMARK  274  A    between atoms: _708  and  _710
REMARK  275  A    between atoms: _710  and  _711
REMARK  276  A    between atoms: _710  and  _713
REMARK  277  A    between atoms: _713  and  _714
REMARK  278  A    between atoms: _717  and  _719
REMARK  279  A    between atoms: _719  and  _720
REMARK  280  A    between atoms: _719  and  _722
REMARK  281  A    between atoms: _722  and  _723
REMARK                            x       y       z     vdW  Elec       q    Type
REMARK                         _______ _______ _______ _____ _____    ______ ____
ROOT
ATOM      1  C   SER A   1       9.904  11.863  19.572  0.00  0.00    +0.241 C 
ATOM      2  N   PHE A   2       9.229  11.259  20.573  0.00  0.00    -0.298 N 
ATOM      3  H   PHE A   2       9.174  10.221  20.618  0.00  0.00    +0.150 HD
ATOM      4  O   SER A   1       9.849  13.073  19.341  0.00  0.00    -0.274 OA
ENDROOT
BRANCH   1   5
ATOM      5  CA  SER A   1      10.764  10.978  18.673  0.00  0.00    +0.174 C 
BRANCH   5   6
ATOM      6  N   SER A   1      11.314   9.876  19.445  0.00  0.00    -0.236 NA
ATOM      7  H   SER A   1      11.102   8.900  19.155  0.00  0.00    +0.142 HD
ENDBRANCH   5   6
BRANCH   5   8
ATOM      8  CB  SER A   1       9.903  10.515  17.491  0.00  0.00    +0.163 C 
BRANCH   8   9
ATOM      9  OG  SER A   1       9.632  11.638  16.674  0.00  0.00    -0.380 OA
ATOM     10  H   SER A   1      10.485  12.019  16.346  0.00  0.00    +0.211 HD
ENDBRANCH   8   9
ENDBRANCH   5   8
ENDBRANCH   1   5
BRANCH   2  11
ATOM     11  CA  PHE A   2       8.584  12.070  21.581  0.00  0.00    +0.141 C 
BRANCH  11  12
ATOM     12  C   PHE A   2       9.544  12.419  22.728  0.00  0.00    +0.227 C 
ATOM     13  O   PHE A   2       9.679  13.568  23.109  0.00  0.00    -0.286 OA
ENDBRANCH  11  12
BRANCH  11  14
ATOM     14  CB  PHE A   2       7.393  11.320  22.218  0.00  0.00    +0.054 C 
BRANCH  14  15
ATOM     15  CG  PHE A   2       6.174  11.448  21.341  0.00  0.00    -0.020 A 
ATOM     16  CD2 PHE A   2       5.122  12.248  21.780  0.00  0.00    -0.004 A 
ATOM     17  CE2 PHE A   2       3.981  12.399  21.005  0.00  0.00    -0.000 A 
ATOM     18  CZ  PHE A   2       3.910  11.751  19.781  0.00  0.00    -0.000 A 
ATOM     19  CE1 PHE A   2       4.943  10.966  19.335  0.00  0.00    -0.000 A 
ATOM     20  CD1 PHE A   2       6.087  10.805  20.130  0.00  0.00    -0.004 A 
ENDBRANCH  14  15
ENDBRANCH  11  14
ENDBRANCH   2  11
TORSDOF 8
REMARK  Name = ../refined-set-2016/1qka/1qka_pocket.pdb
REMARK  281 active torsions:
REMARK  status: ('A' for Active; 'I' for Inactive)
REMARK    1  A    between atoms: _1  and  _3
REMARK    2  A    between atoms: _3  and  _4
REMARK    3  A    between atoms: _3  and  _6
REMARK    4  A    between atoms: _6  and  _7
REMARK    5  A    between atoms: _12  and  _14
REMARK    6  A    between atoms: _14  and  _15
REMARK    7  A    between atoms: _17  and  _19
REMARK    8  A    between atoms: _19  and  _20
REMARK    9  A    between atoms: _19  and  _22
REMARK   10  A    between atoms: _22  and  _23
REMARK   11  A    between atoms: _25  and  _27
REMARK   12  A    between atoms: _27  and  _28
REMARK   13  A    between atoms: _27  and  _30
REMARK   14  A    between atoms: _30  and  _31
REMARK   15  A    between atoms: _31  and  _32
REMARK   16  A    between atoms: _37  and  _39
REMARK   17  A    between atoms: _39  and  _40
REMARK   18  A    between atoms: _39  and  _42
REMARK   19  A    between atoms: _42  and  _43
REMARK   20  A    between atoms: _46  and  _48
REMARK   21  A    between atoms: _48  and  _49
REMARK   22  A    between atoms: _48  and  _51
REMARK   23  A    between atoms: _51  and  _52
REMARK   24  A    between atoms: _52  and  _53
REMARK   25  A    between atoms: _56  and  _58
REMARK   26  A    between atoms: _58  and  _59
REMARK   27  A    between atoms: _61  and  _63
REMARK   28  A    between atoms: _63  and  _64
REMARK   29  A    between atoms: _63  and  _66
REMARK   30  A    between atoms: _70  and  _71
REMARK   31  A    between atoms: _76  and  _78
REMARK   32  A    between atoms: _78  and  _79
REMARK   33  A    between atoms: _78  and  _81
REMARK   34  A    between atoms: _81  and  _82
REMARK   35  A    between atoms: _82  and  _83
REMARK   36  A    between atoms: _86  and  _88
REMARK   37  A    between atoms: _88  and  _89
REMARK   38  A    between atoms: _88  and  _91
REMARK   39  A    between atoms: _91  and  _92
REMARK   40  A    between atoms: _94  and  _96
REMARK   41  A    between atoms: _96  and  _97
REMARK   42  A    between atoms: _96  and  _99
REMARK   43  A    between atoms: _99  and  _100
REMARK   44  A    between atoms: _105  and  _107
REMARK   45  A    between atoms: _107  and  _108
REMARK   46  A    between atoms: _107  and  _110
REMARK   47  A    between atoms: _110  and  _111
REMARK   48  A    between atoms: _111  and  _112
REMARK   49  A    between atoms: _112  and  _113
REMARK   50  A    between atoms: _123  and  _124
REMARK   51  A    between atoms: _129  and  _131
REMARK   52  A    between atoms: _131  and  _132
REMARK   53  A    between atoms: _131  and  _134
REMARK   54  A    between atoms: _134  and  _135
REMARK   55  A    between atoms: _140  and  _141
REMARK   56  A    between atoms: _143  and  _145
REMARK   57  A    between atoms: _145  and  _146
REMARK   58  A    between atoms: _145  and  _148
REMARK   59  A    between atoms: _148  and  _149
REMARK   60  A    between atoms: _154  and  _155
REMARK   61  A    between atoms: _157  and  _159
REMARK   62  A    between atoms: _159  and  _160
REMARK   63  A    between atoms: _159  and  _162
REMARK   64  A    between atoms: _162  and  _163
REMARK   65  A    between atoms: _168  and  _169
REMARK   66  A    between atoms: _171  and  _173
REMARK   67  A    between atoms: _173  and  _174
REMARK   68  A    between atoms: _173  and  _176
REMARK   69  A    between atoms: _179  and  _181
REMARK   70  A    between atoms: _181  and  _182
REMARK   71  A    between atoms: _181  and  _184
REMARK   72  A    between atoms: _184  and  _185
REMARK   73  A    between atoms: _191  and  _192
REMARK   74  A    between atoms: _197  and  _199
REMARK   75  A    between atoms: _199  and  _200
REMARK   76  A    between atoms: _199  and  _202
REMARK   77  A    between atoms: _202  and  _203
REMARK   78  A    between atoms: _205  and  _207
REMARK   79  A    between atoms: _207  and  _208
REMARK   80  A    between atoms: _207  and  _210
REMARK   81  A    between atoms: _210  and  _211
REMARK   82  A    between atoms: _211  and  _212
REMARK   83  A    between atoms: _215  and  _217
REMARK   84  A    between atoms: _217  and  _218
REMARK   85  A    between atoms: _217  and  _220
REMARK   86  A    between atoms: _220  and  _221
REMARK   87  A    between atoms: _226  and  _227
REMARK   88  A    between atoms: _229  and  _231
REMARK   89  A    between atoms: _231  and  _232
REMARK   90  A    between atoms: _231  and  _234
REMARK   91  A    between atoms: _234  and  _235
REMARK   92  A    between atoms: _240  and  _242
REMARK   93  A    between atoms: _242  and  _243
REMARK   94  A    between atoms: _242  and  _245
REMARK   95  A    between atoms: _245  and  _246
REMARK   96  A    between atoms: _251  and  _253
REMARK   97  A    between atoms: _253  and  _254
REMARK   98  A    between atoms: _253  and  _256
REMARK   99  A    between atoms: _256  and  _257
REMARK  100  A    between atoms: _257  and  _258
REMARK  101  A    between atoms: _260  and  _262
REMARK  102  A    between atoms: _262  and  _263
REMARK  103  A    between atoms: _262  and  _265
REMARK  104  A    between atoms: _265  and  _266
REMARK  105  A    between atoms: _271  and  _272
REMARK  106  A    between atoms: _274  and  _276
REMARK  107  A    between atoms: _276  and  _277
REMARK  108  A    between atoms: _276  and  _279
REMARK  109  A    between atoms: _279  and  _280
REMARK  110  A    between atoms: _283  and  _285
REMARK  111  A    between atoms: _285  and  _286
REMARK  112  A    between atoms: _285  and  _288
REMARK  113  A    between atoms: _288  and  _289
REMARK  114  A    between atoms: _289  and  _497
REMARK  115  A    between atoms: _290  and  _292
REMARK  116  A    between atoms: _292  and  _293
REMARK  117  A    between atoms: _292  and  _295
REMARK  118  A    between atoms: _295  and  _296
REMARK  119  A    between atoms: _299  and  _301
REMARK  120  A    between atoms: _301  and  _302
REMARK  121  A    between atoms: _301  and  _304
REMARK  122  A    between atoms: _304  and  _305
REMARK  123  A    between atoms: _310  and  _311
REMARK  124  A    between atoms: _313  and  _315
REMARK  125  A    between atoms: _315  and  _316
REMARK  126  A    between atoms: _315  and  _318
REMARK  127  A    between atoms: _318  and  _319
REMARK  128  A    between atoms: _324  and  _325
REMARK  129  A    between atoms: _327  and  _329
REMARK  130  A    between atoms: _329  and  _330
REMARK  131  A    between atoms: _329  and  _332
REMARK  132  A    between atoms: _332  and  _333
REMARK  133  A    between atoms: _333  and  _334
REMARK  134  A    between atoms: _337  and  _339
REMARK  135  A    between atoms: _339  and  _340
REMARK  136  A    between atoms: _339  and  _342
REMARK  137  A    between atoms: _342  and  _343
REMARK  138  A    between atoms: _348  and  _349
REMARK  139  A    between atoms: _351  and  _353
REMARK  140  A    between atoms: _353  and  _354
REMARK  141  A    between atoms: _353  and  _356
REMARK  142  A    between atoms: _356  and  _357
REMARK  143  A    between atoms: _362  and  _364
REMARK  144  A    between atoms: _364  and  _365
REMARK  145  A    between atoms: _364  and  _367
REMARK  146  A    between atoms: _367  and  _368
REMARK  147  A    between atoms: _371  and  _373
REMARK  148  A    between atoms: _373  and  _374
REMARK  149  A    between atoms: _373  and  _376
REMARK  150  A    between atoms: _376  and  _377
REMARK  151  A    between atoms: _382  and  _384
REMARK  152  A    between atoms: _384  and  _385
REMARK  153  A    between atoms: _384  and  _387
REMARK  154  A    between atoms: _387  and  _388
REMARK  155  A    between atoms: _398  and  _400
REMARK  156  A    between atoms: _400  and  _401
REMARK  157  A    between atoms: _400  and  _403
REMARK  158  A    between atoms: _403  and  _404
REMARK  159  A    between atoms: _410  and  _412
REMARK  160  A    between atoms: _412  and  _413
REMARK  161  A    between atoms: _412  and  _415
REMARK  162  A    between atoms: _415  and  _416
REMARK  163  A    between atoms: _419  and  _421
REMARK  164  A    between atoms: _421  and  _422
REMARK  165  A    between atoms: _421  and  _424
REMARK  166  A    between atoms: _424  and  _425
REMARK  167  A    between atoms: _425  and  _426
REMARK  168  A    between atoms: _426  and  _427
REMARK  169  A    between atoms: _436  and  _438
REMARK  170  A    between atoms: _438  and  _439
REMARK  171  A    between atoms: _438  and  _441
REMARK  172  A    between atoms: _441  and  _442
REMARK  173  A    between atoms: _447  and  _449
REMARK  174  A    between atoms: _449  and  _450
REMARK  175  A    between atoms: _449  and  _452
REMARK  176  A    between atoms: _452  and  _453
REMARK  177  A    between atoms: _453  and  _454
REMARK  178  A    between atoms: _454  and  _455
REMARK  179  A    between atoms: _464  and  _466
REMARK  180  A    between atoms: _466  and  _467
REMARK  181  A    between atoms: _470  and  _472
REMARK  182  A    between atoms: _472  and  _473
REMARK  183  A    between atoms: _475  and  _477
REMARK  184  A    between atoms: _477  and  _478
REMARK  185  A    between atoms: _477  and  _480
REMARK  186  A    between atoms: _480  and  _481
REMARK  187  A    between atoms: _491  and  _493
REMARK  188  A    between atoms: _493  and  _494
REMARK  189  A    between atoms: _493  and  _496
REMARK  190  A    between atoms: _496  and  _497
REMARK  191  A    between atoms: _498  and  _500
REMARK  192  A    between atoms: _500  and  _501
REMARK  193  A    between atoms: _504  and  _506
REMARK  194  A    between atoms: _506  and  _507
REMARK  195  A    between atoms: _506  and  _509
REMARK  196  A    between atoms: _509  and  _510
REMARK  197  A    between atoms: _513  and  _515
REMARK  198  A    between atoms: _515  and  _516
REMARK  199  A    between atoms: _515  and  _518
REMARK  200  A    between atoms: _518  and  _519
REMARK  201  A    between atoms: _524  and  _525
REMARK  202  A    between atoms: _527  and  _529
REMARK  203  A    between atoms: _529  and  _530
REMARK  204  A    between atoms: _529  and  _532
REMARK  205  A    between atoms: _532  and  _533
REMARK  206  A    between atoms: _535  and  _537
REMARK  207  A    between atoms: _537  and  _538
REMARK  208  A    between atoms: _537  and  _540
REMARK  209  A    between atoms: _540  and  _541
REMARK  210  A    between atoms: _547  and  _549
REMARK  211  A    between atoms: _549  and  _550
REMARK  212  A    between atoms: _549  and  _552
REMARK  213  A    between atoms: _552  and  _553
REMARK  214  A    between atoms: _556  and  _558
REMARK  215  A    between atoms: _558  and  _559
REMARK  216  A    between atoms: _558  and  _561
REMARK  217  A    between atoms: _561  and  _562
REMARK  218  A    between atoms: _562  and  _563
REMARK  219  A    between atoms: _565  and  _567
REMARK  220  A    between atoms: _567  and  _568
REMARK  221  A    between atoms: _567  and  _570
REMARK  222  A    between atoms: _570  and  _571
REMARK  223  A    between atoms: _573  and  _575
REMARK  224  A    between atoms: _575  and  _576
REMARK  225  A    between atoms: _575  and  _578
REMARK  226  A    between atoms: _578  and  _579
REMARK  227  A    between atoms: _581  and  _583
REMARK  228  A    between atoms: _583  and  _584
REMARK  229  A    between atoms: _583  and  _586
REMARK  230  A    between atoms: _586  and  _587
REMARK  231  A    between atoms: _592  and  _594
REMARK  232  A    between atoms: _594  and  _595
REMARK  233  A    between atoms: _594  and  _597
REMARK  234  A    between atoms: _597  and  _598
REMARK  235  A    between atoms: _603  and  _605
REMARK  236  A    between atoms: _605  and  _606
REMARK  237  A    between atoms: _605  and  _608
REMARK  238  A    between atoms: _608  and  _609
REMARK  239  A    between atoms: _612  and  _614
REMARK  240  A    between atoms: _614  and  _615
REMARK  241  A    between atoms: _618  and  _620
REMARK  242  A    between atoms: _620  and  _621
REMARK  243  A    between atoms: _620  and  _623
REMARK  244  A    between atoms: _623  and  _624
REMARK  245  A    between atoms: _629  and  _631
REMARK  246  A    between atoms: _631  and  _632
REMARK  247  A    between atoms: _631  and  _634
REMARK  248  A    between atoms: _634  and  _635
REMARK  249  A    between atoms: _640  and  _641
REMARK  250  A    between atoms: _643  and  _645
REMARK  251  A    between atoms: _645  and  _646
REMARK  252  A    between atoms: _645  and  _648
REMARK  253  A    between atoms: _648  and  _649
REMARK  254  A    between atoms: _654  and  _655
REMARK  255  A    between atoms: _657  and  _659
REMARK  256  A    between atoms: _659  and  _660
REMARK  257  A    between atoms: _659  and  _662
REMARK  258  A    between atoms: _665  and  _667
REMARK  259  A    between atoms: _667  and  _668
REMARK  260  A    between atoms: _667  and  _670
REMARK  261  A    between atoms: _670  and  _671
REMARK  262  A    between atoms: _676  and  _678
REMARK  263  A    between atoms: _678  and  _679
REMARK  264  A    between atoms: _682  and  _684
REMARK  265  A    between atoms: _684  and  _685
REMARK  266  A    between atoms: _684  and  _687
REMARK  267  A    between atoms: _687  and  _688
REMARK  268  A    between atoms: _688  and  _689
REMARK  269  A    between atoms: _689  and  _690
REMARK  270  A    between atoms: _699  and  _701
REMARK  271  A    between atoms: _701  and  _702
REMARK  272  A    between atoms: _701  and  _704
REMARK  273  A    between atoms: _704  and  _705
REMARK  274  A    between atoms: _708  and  _710
REMARK  275  A    between atoms: _710  and  _711
REMARK  276  A    between atoms: _710  and  _713
REMARK  277  A    between atoms: _713  and  _714
REMARK  278  A    between atoms: _717  and  _719
REMARK  279  A    between atoms: _719  and  _720
REMARK  280  A    between atoms: _719  and  _722
REMARK  281  A    between atoms: _722  and  _723
REMARK                            x       y       z     vdW  Elec       q    Type
REMARK                         _______ _______ _______ _____ _____    ______ ____
ROOT
ATOM      1  C   THR A   1      11.644  17.188  24.513  0.00  0.00    +0.241 C 
ATOM      2  N   MET A   2      11.685  16.307  25.507  0.00  0.00    -0.298 N 
ATOM      3  H   MET A   2      11.756  15.292  25.293  0.00  0.00    +0.150 HD
ATOM      4  O   THR A   1      11.490  18.401  24.648  0.00  0.00    -0.274 OA
ENDROOT
BRANCH   1   5
ATOM      5  CA  THR A   1      11.781  16.693  23.074  0.00  0.00    +0.172 C 
BRANCH   5   6
ATOM      6  N   THR A   1      12.235  15.311  22.996  0.00  0.00    -0.236 NA
ATOM      7  H   THR A   1      11.577  14.554  22.723  0.00  0.00    +0.142 HD
ENDBRANCH   5   6
BRANCH   5   8
ATOM      8  CB  THR A   1      10.426  16.923  22.356  0.00  0.00    +0.135 C 
ATOM      9  CG2 THR A   1      10.539  16.427  20.930  0.00  0.00    +0.034 C 
BRANCH   8  10
ATOM     10  OG1 THR A   1       9.395  16.244  23.083  0.00  0.00    -0.383 OA
ATOM     11  HG1 THR A   1       9.598  15.276  23.114  0.00  0.00    +0.210 HD
ENDBRANCH   8  10
ENDBRANCH   5   8
ENDBRANCH   1   5
BRANCH   2  12
ATOM     12  CA  MET A   2      11.631  16.749  26.894  0.00  0.00    +0.138 C 
BRANCH  12  13
ATOM     13  C   MET A   2      13.016  16.792  27.545  0.00  0.00    +0.227 C 
ATOM     14  O   MET A   2      13.071  17.089  28.743  0.00  0.00    -0.286 OA
ENDBRANCH  12  13
BRANCH  12  15
ATOM     15  CB  MET A   2      10.705  15.868  27.730  0.00  0.00    +0.039 C 
BRANCH  15  16
ATOM     16  CG  MET A   2       9.241  15.984  27.269  0.00  0.00    +0.060 C 
BRANCH  16  17
ATOM     17  SD  MET A   2       8.520  17.542  27.796  0.00  0.00    -0.139 S 
ATOM     18  CE  MET A   2       6.848  17.413  27.169  0.00  0.00    +0.069 C 
ENDBRANCH  16  17
ENDBRANCH  15  16
ENDBRANCH  12  15
ENDBRANCH   2  12
TORSDOF 9
REMARK  Name = ../refined-set-2016/1qka/1qka_pocket.pdb
REMARK  281 active torsions:
REMARK  status: ('A' for Active; 'I' for Inactive)
REMARK    1  A    between atoms: _1  and  _3
REMARK    2  A    between atoms: _3  and  _4
REMARK    3  A    between atoms: _3  and  _6
REMARK    4  A    between atoms: _6  and  _7
REMARK    5  A    between atoms: _12  and  _14
REMARK    6  A    between atoms: _14  and  _15
REMARK    7  A    between atoms: _17  and  _19
REMARK    8  A    between atoms: _19  and  _20
REMARK    9  A    between atoms: _19  and  _22
REMARK   10  A    between atoms: _22  and  _23
REMARK   11  A    between atoms: _25  and  _27
REMARK   12  A    between atoms: _27  and  _28
REMARK   13  A    between atoms: _27  and  _30
REMARK   14  A    between atoms: _30  and  _31
REMARK   15  A    between atoms: _31  and  _32
REMARK   16  A    between atoms: _37  and  _39
REMARK   17  A    between atoms: _39  and  _40
REMARK   18  A    between atoms: _39  and  _42
REMARK   19  A    between atoms: _42  and  _43
REMARK   20  A    between atoms: _46  and  _48
REMARK   21  A    between atoms: _48  and  _49
REMARK   22  A    between atoms: _48  and  _51
REMARK   23  A    between atoms: _51  and  _52
REMARK   24  A    between atoms: _52  and  _53
REMARK   25  A    between atoms: _56  and  _58
REMARK   26  A    between atoms: _58  and  _59
REMARK   27  A    between atoms: _61  and  _63
REMARK   28  A    between atoms: _63  and  _64
REMARK   29  A    between atoms: _63  and  _66
REMARK   30  A    between atoms: _70  and  _71
REMARK   31  A    between atoms: _76  and  _78
REMARK   32  A    between atoms: _78  and  _79
REMARK   33  A    between atoms: _78  and  _81
REMARK   34  A    between atoms: _81  and  _82
REMARK   35  A    between atoms: _82  and  _83
REMARK   36  A    between atoms: _86  and  _88
REMARK   37  A    between atoms: _88  and  _89
REMARK   38  A    between atoms: _88  and  _91
REMARK   39  A    between atoms: _91  and  _92
REMARK   40  A    between atoms: _94  and  _96
REMARK   41  A    between atoms: _96  and  _97
REMARK   42  A    between atoms: _96  and  _99
REMARK   43  A    between atoms: _99  and  _100
REMARK   44  A    between atoms: _105  and  _107
REMARK   45  A    between atoms: _107  and  _108
REMARK   46  A    between atoms: _107  and  _110
REMARK   47  A    between atoms: _110  and  _111
REMARK   48  A    between atoms: _111  and  _112
REMARK   49  A    between atoms: _112  and  _113
REMARK   50  A    between atoms: _123  and  _124
REMARK   51  A    between atoms: _129  and  _131
REMARK   52  A    between atoms: _131  and  _132
REMARK   53  A    between atoms: _131  and  _134
REMARK   54  A    between atoms: _134  and  _135
REMARK   55  A    between atoms: _140  and  _141
REMARK   56  A    between atoms: _143  and  _145
REMARK   57  A    between atoms: _145  and  _146
REMARK   58  A    between atoms: _145  and  _148
REMARK   59  A    between atoms: _148  and  _149
REMARK   60  A    between atoms: _154  and  _155
REMARK   61  A    between atoms: _157  and  _159
REMARK   62  A    between atoms: _159  and  _160
REMARK   63  A    between atoms: _159  and  _162
REMARK   64  A    between atoms: _162  and  _163
REMARK   65  A    between atoms: _168  and  _169
REMARK   66  A    between atoms: _171  and  _173
REMARK   67  A    between atoms: _173  and  _174
REMARK   68  A    between atoms: _173  and  _176
REMARK   69  A    between atoms: _179  and  _181
REMARK   70  A    between atoms: _181  and  _182
REMARK   71  A    between atoms: _181  and  _184
REMARK   72  A    between atoms: _184  and  _185
REMARK   73  A    between atoms: _191  and  _192
REMARK   74  A    between atoms: _197  and  _199
REMARK   75  A    between atoms: _199  and  _200
REMARK   76  A    between atoms: _199  and  _202
REMARK   77  A    between atoms: _202  and  _203
REMARK   78  A    between atoms: _205  and  _207
REMARK   79  A    between atoms: _207  and  _208
REMARK   80  A    between atoms: _207  and  _210
REMARK   81  A    between atoms: _210  and  _211
REMARK   82  A    between atoms: _211  and  _212
REMARK   83  A    between atoms: _215  and  _217
REMARK   84  A    between atoms: _217  and  _218
REMARK   85  A    between atoms: _217  and  _220
REMARK   86  A    between atoms: _220  and  _221
REMARK   87  A    between atoms: _226  and  _227
REMARK   88  A    between atoms: _229  and  _231
REMARK   89  A    between atoms: _231  and  _232
REMARK   90  A    between atoms: _231  and  _234
REMARK   91  A    between atoms: _234  and  _235
REMARK   92  A    between atoms: _240  and  _242
REMARK   93  A    between atoms: _242  and  _243
REMARK   94  A    between atoms: _242  and  _245
REMARK   95  A    between atoms: _245  and  _246
REMARK   96  A    between atoms: _251  and  _253
REMARK   97  A    between atoms: _253  and  _254
REMARK   98  A    between atoms: _253  and  _256
REMARK   99  A    between atoms: _256  and  _257
REMARK  100  A    between atoms: _257  and  _258
REMARK  101  A    between atoms: _260  and  _262
REMARK  102  A    between atoms: _262  and  _263
REMARK  103  A    between atoms: _262  and  _265
REMARK  104  A    between atoms: _265  and  _266
REMARK  105  A    between atoms: _271  and  _272
REMARK  106  A    between atoms: _274  and  _276
REMARK  107  A    between atoms: _276  and  _277
REMARK  108  A    between atoms: _276  and  _279
REMARK  109  A    between atoms: _279  and  _280
REMARK  110  A    between atoms: _283  and  _285
REMARK  111  A    between atoms: _285  and  _286
REMARK  112  A    between atoms: _285  and  _288
REMARK  113  A    between atoms: _288  and  _289
REMARK  114  A    between atoms: _289  and  _497
REMARK  115  A    between atoms: _290  and  _292
REMARK  116  A    between atoms: _292  and  _293
REMARK  117  A    between atoms: _292  and  _295
REMARK  118  A    between atoms: _295  and  _296
REMARK  119  A    between atoms: _299  and  _301
REMARK  120  A    between atoms: _301  and  _302
REMARK  121  A    between atoms: _301  and  _304
REMARK  122  A    between atoms: _304  and  _305
REMARK  123  A    between atoms: _310  and  _311
REMARK  124  A    between atoms: _313  and  _315
REMARK  125  A    between atoms: _315  and  _316
REMARK  126  A    between atoms: _315  and  _318
REMARK  127  A    between atoms: _318  and  _319
REMARK  128  A    between atoms: _324  and  _325
REMARK  129  A    between atoms: _327  and  _329
REMARK  130  A    between atoms: _329  and  _330
REMARK  131  A    between atoms: _329  and  _332
REMARK  132  A    between atoms: _332  and  _333
REMARK  133  A    between atoms: _333  and  _334
REMARK  134  A    between atoms: _337  and  _339
REMARK  135  A    between atoms: _339  and  _340
REMARK  136  A    between atoms: _339  and  _342
REMARK  137  A    between atoms: _342  and  _343
REMARK  138  A    between atoms: _348  and  _349
REMARK  139  A    between atoms: _351  and  _353
REMARK  140  A    between atoms: _353  and  _354
REMARK  141  A    between atoms: _353  and  _356
REMARK  142  A    between atoms: _356  and  _357
REMARK  143  A    between atoms: _362  and  _364
REMARK  144  A    between atoms: _364  and  _365
REMARK  145  A    between atoms: _364  and  _367
REMARK  146  A    between atoms: _367  and  _368
REMARK  147  A    between atoms: _371  and  _373
REMARK  148  A    between atoms: _373  and  _374
REMARK  149  A    between atoms: _373  and  _376
REMARK  150  A    between atoms: _376  and  _377
REMARK  151  A    between atoms: _382  and  _384
REMARK  152  A    between atoms: _384  and  _385
REMARK  153  A    between atoms: _384  and  _387
REMARK  154  A    between atoms: _387  and  _388
REMARK  155  A    between atoms: _398  and  _400
REMARK  156  A    between atoms: _400  and  _401
REMARK  157  A    between atoms: _400  and  _403
REMARK  158  A    between atoms: _403  and  _404
REMARK  159  A    between atoms: _410  and  _412
REMARK  160  A    between atoms: _412  and  _413
REMARK  161  A    between atoms: _412  and  _415
REMARK  162  A    between atoms: _415  and  _416
REMARK  163  A    between atoms: _419  and  _421
REMARK  164  A    between atoms: _421  and  _422
REMARK  165  A    between atoms: _421  and  _424
REMARK  166  A    between atoms: _424  and  _425
REMARK  167  A    between atoms: _425  and  _426
REMARK  168  A    between atoms: _426  and  _427
REMARK  169  A    between atoms: _436  and  _438
REMARK  170  A    between atoms: _438  and  _439
REMARK  171  A    between atoms: _438  and  _441
REMARK  172  A    between atoms: _441  and  _442
REMARK  173  A    between atoms: _447  and  _449
REMARK  174  A    between atoms: _449  and  _450
REMARK  175  A    between atoms: _449  and  _452
REMARK  176  A    between atoms: _452  and  _453
REMARK  177  A    between atoms: _453  and  _454
REMARK  178  A    between atoms: _454  and  _455
REMARK  179  A    between atoms: _464  and  _466
REMARK  180  A    between atoms: _466  and  _467
REMARK  181  A    between atoms: _470  and  _472
REMARK  182  A    between atoms: _472  and  _473
REMARK  183  A    between atoms: _475  and  _477
REMARK  184  A    between atoms: _477  and  _478
REMARK  185  A    between atoms: _477  and  _480
REMARK  186  A    between atoms: _480  and  _481
REMARK  187  A    between atoms: _491  and  _493
REMARK  188  A    between atoms: _493  and  _494
REMARK  189  A    between atoms: _493  and  _496
REMARK  190  A    between atoms: _496  and  _497
REMARK  191  A    between atoms: _498  and  _500
REMARK  192  A    between atoms: _500  and  _501
REMARK  193  A    between atoms: _504  and  _506
REMARK  194  A    between atoms: _506  and  _507
REMARK  195  A    between atoms: _506  and  _509
REMARK  196  A    between atoms: _509  and  _510
REMARK  197  A    between atoms: _513  and  _515
REMARK  198  A    between atoms: _515  and  _516
REMARK  199  A    between atoms: _515  and  _518
REMARK  200  A    between atoms: _518  and  _519
REMARK  201  A    between atoms: _524  and  _525
REMARK  202  A    between atoms: _527  and  _529
REMARK  203  A    between atoms: _529  and  _530
REMARK  204  A    between atoms: _529  and  _532
REMARK  205  A    between atoms: _532  and  _533
REMARK  206  A    between atoms: _535  and  _537
REMARK  207  A    between atoms: _537  and  _538
REMARK  208  A    between atoms: _537  and  _540
REMARK  209  A    between atoms: _540  and  _541
REMARK  210  A    between atoms: _547  and  _549
REMARK  211  A    between atoms: _549  and  _550
REMARK  212  A    between atoms: _549  and  _552
REMARK  213  A    between atoms: _552  and  _553
REMARK  214  A    between atoms: _556  and  _558
REMARK  215  A    between atoms: _558  and  _559
REMARK  216  A    between atoms: _558  and  _561
REMARK  217  A    between atoms: _561  and  _562
REMARK  218  A    between atoms: _562  and  _563
REMARK  219  A    between atoms: _565  and  _567
REMARK  220  A    between atoms: _567  and  _568
REMARK  221  A    between atoms: _567  and  _570
REMARK  222  A    between atoms: _570  and  _571
REMARK  223  A    between atoms: _573  and  _575
REMARK  224  A    between atoms: _575  and  _576
REMARK  225  A    between atoms: _575  and  _578
REMARK  226  A    between atoms: _578  and  _579
REMARK  227  A    between atoms: _581  and  _583
REMARK  228  A    between atoms: _583  and  _584
REMARK  229  A    between atoms: _583  and  _586
REMARK  230  A    between atoms: _586  and  _587
REMARK  231  A    between atoms: _592  and  _594
REMARK  232  A    between atoms: _594  and  _595
REMARK  233  A    between atoms: _594  and  _597
REMARK  234  A    between atoms: _597  and  _598
REMARK  235  A    between atoms: _603  and  _605
REMARK  236  A    between atoms: _605  and  _606
REMARK  237  A    between atoms: _605  and  _608
REMARK  238  A    between atoms: _608  and  _609
REMARK  239  A    between atoms: _612  and  _614
REMARK  240  A    between atoms: _614  and  _615
REMARK  241  A    between atoms: _618  and  _620
REMARK  242  A    between atoms: _620  and  _621
REMARK  243  A    between atoms: _620  and  _623
REMARK  244  A    between atoms: _623  and  _624
REMARK  245  A    between atoms: _629  and  _631
REMARK  246  A    between atoms: _631  and  _632
REMARK  247  A    between atoms: _631  and  _634
REMARK  248  A    between atoms: _634  and  _635
REMARK  249  A    between atoms: _640  and  _641
REMARK  250  A    between atoms: _643  and  _645
REMARK  251  A    between atoms: _645  and  _646
REMARK  252  A    between atoms: _645  and  _648
REMARK  253  A    between atoms: _648  and  _649
REMARK  254  A    between atoms: _654  and  _655
REMARK  255  A    between atoms: _657  and  _659
REMARK  256  A    between atoms: _659  and  _660
REMARK  257  A    between atoms: _659  and  _662
REMARK  258  A    between atoms: _665  and  _667
REMARK  259  A    between atoms: _667  and  _668
REMARK  260  A    between atoms: _667  and  _670
REMARK  261  A    between atoms: _670  and  _671
REMARK  262  A    between atoms: _676  and  _678
REMARK  263  A    between atoms: _678  and  _679
REMARK  264  A    between atoms: _682  and  _684
REMARK  265  A    between atoms: _684  and  _685
REMARK  266  A    between atoms: _684  and  _687
REMARK  267  A    between atoms: _687  and  _688
REMARK  268  A    between atoms: _688  and  _689
REMARK  269  A    between atoms: _689  and  _690
REMARK  270  A    between atoms: _699  and  _701
REMARK  271  A    between atoms: _701  and  _702
REMARK  272  A    between atoms: _701  and  _704
REMARK  273  A    between atoms: _704  and  _705
REMARK  274  A    between atoms: _708  and  _710
REMARK  275  A    between atoms: _710  and  _711
REMARK  276  A    between atoms: _710  and  _713
REMARK  277  A    between atoms: _713  and  _714
REMARK  278  A    between atoms: _717  and  _719
REMARK  279  A    between atoms: _719  and  _720
REMARK  280  A    between atoms: _719  and  _722
REMARK  281  A    between atoms: _722  and  _723
REMARK                            x       y       z     vdW  Elec       q    Type
REMARK                         _______ _______ _______ _____ _____    ______ ____
ROOT
ATOM      1  CA  ASN A   4      11.476  21.747  24.674  0.00  0.00    +0.158 C 
ENDROOT
BRANCH   1   3
ATOM      2  C   ASN A   3      11.281  21.401  22.299  0.00  0.00    +0.241 C 
ATOM      3  N   ASN A   4      12.072  21.765  23.326  0.00  0.00    -0.297 N 
ATOM      4  H   ASN A   4      13.062  22.047  23.175  0.00  0.00    +0.150 HD
ATOM      5  O   ASN A   3      10.074  21.141  22.442  0.00  0.00    -0.273 OA
BRANCH   2   6
ATOM      6  CA  ASN A   3      11.924  21.327  20.909  0.00  0.00    +0.158 C 
BRANCH   6   8
ATOM      7  C   SER A   2      13.968  22.720  20.771  0.00  0.00    +0.243 C 
ATOM      8  N   ASN A   3      13.367  21.529  20.945  0.00  0.00    -0.297 N 
ATOM      9  H   ASN A   3      13.971  20.700  21.116  0.00  0.00    +0.150 HD
ATOM     10  O   SER A   2      13.304  23.728  20.553  0.00  0.00    -0.273 OA
BRANCH   7  11
ATOM     11  CA  SER A   2      15.478  22.829  20.928  0.00  0.00    +0.178 C 
BRANCH  11  14
ATOM     12  C   SER A   1      15.768  21.404  22.892  0.00  0.00    +0.241 C 
ATOM     13  O   SER A   1      15.050  22.136  23.575  0.00  0.00    -0.274 OA
ATOM     14  N   SER A   2      16.026  21.669  21.616  0.00  0.00    -0.295 N 
ATOM     15  H   SER A   2      16.645  21.021  21.087  0.00  0.00    +0.150 HD
BRANCH  12  16
ATOM     16  CA  SER A   1      16.285  20.098  23.459  0.00  0.00    +0.174 C 
BRANCH  16  17
ATOM     17  N   SER A   1      16.903  20.243  24.772  0.00  0.00    -0.236 NA
ATOM     18  H   SER A   1      16.465  19.798  25.603  0.00  0.00    +0.142 HD
ENDBRANCH  16  17
BRANCH  16  19
ATOM     19  CB  SER A   1      15.052  19.164  23.592  0.00  0.00    +0.163 C 
BRANCH  19  20
ATOM     20  OG  SER A   1      14.392  19.219  22.317  0.00  0.00    -0.380 OA
ATOM     21  H   SER A   1      15.012  18.904  21.612  0.00  0.00    +0.211 HD
ENDBRANCH  19  20
ENDBRANCH  16  19
ENDBRANCH  12  16
ENDBRANCH  11  14
BRANCH  11  22
ATOM     22  CB  SER A   2      16.224  22.979  19.593  0.00  0.00    +0.166 C 
BRANCH  22  23
ATOM     23  OG  SER A   2      15.865  21.895  18.719  0.00  0.00    -0.380 OA
ATOM     24  H   SER A   2      14.889  21.913  18.556  0.00  0.00    +0.211 HD
ENDBRANCH  22  23
ENDBRANCH  11  22
ENDBRANCH   7  11
ENDBRANCH   6   8
BRANCH   6  25
ATOM     25  CB  ASN A   3      11.616  19.948  20.322  0.00  0.00    +0.114 C 
BRANCH  25  26
ATOM     26  CG  ASN A   3      12.114  19.757  18.906  0.00  0.00    +0.222 C 
ATOM     27  OD1 ASN A   3      12.899  18.851  18.616  0.00  0.00    -0.275 OA
ATOM     28  ND2 ASN A   3      11.664  20.547  17.948  0.00  0.00    -0.329 N 
ATOM     29 HD21 ASN A   3      11.002  21.316  18.176  0.00  0.00    +0.145 HD
ATOM     30 HD22 ASN A   3      11.972  20.400  16.966  0.00  0.00    +0.145 HD
ENDBRANCH  25  26
ENDBRANCH   6  25
ENDBRANCH   2   6
ENDBRANCH   1   3
BRANCH   1  31
ATOM     31  C   ASN A   4      10.749  23.037  25.015  0.00  0.00    +0.241 C 
ATOM     32  O   ASN A   4      11.258  23.926  25.684  0.00  0.00    -0.273 OA
ATOM     33  N   THR A   5       9.496  23.126  24.578  0.00  0.00    -0.295 N 
ATOM     34  H   THR A   5       9.125  22.338  24.009  0.00  0.00    +0.150 HD
BRANCH  33  35
ATOM     35  CA  THR A   5       8.606  24.252  24.841  0.00  0.00    +0.176 C 
BRANCH  35  36
ATOM     36  C   THR A   5       7.903  24.084  26.177  0.00  0.00    +0.243 C 
ATOM     37  N   ALA A   6       8.039  22.899  26.799  0.00  0.00    -0.297 N 
ATOM     38  H   ALA A   6       8.521  22.110  26.322  0.00  0.00    +0.150 HD
ATOM     39  O   THR A   5       7.213  25.005  26.648  0.00  0.00    -0.273 OA
BRANCH  37  40
ATOM     40  CA  ALA A   6       7.510  22.727  28.138  0.00  0.00    +0.149 C 
ATOM     41  CB  ALA A   6       7.419  21.269  28.578  0.00  0.00    +0.031 C 
BRANCH  40  42
ATOM     42  C   ALA A   6       8.446  23.433  29.133  0.00  0.00    +0.241 C 
ATOM     43  O   ALA A   6       8.051  23.659  30.286  0.00  0.00    -0.273 OA
ATOM     44  N   HIS A   7       9.676  23.707  28.745  0.00  0.00    -0.298 N 
ATOM     45  H   HIS A   7       9.933  23.461  27.768  0.00  0.00    +0.150 HD
BRANCH  44  46
ATOM     46  CA  HIS A   7      10.703  24.325  29.569  0.00  0.00    +0.143 C 
BRANCH  46  47
ATOM     47  C   HIS A   7      10.950  23.476  30.817  0.00  0.00    +0.227 C 
ATOM     48  O   HIS A   7      11.063  23.908  31.960  0.00  0.00    -0.286 OA
ENDBRANCH  46  47
BRANCH  46  49
ATOM     49  CB  HIS A   7      10.342  25.782  29.906  0.00  0.00    +0.075 C 
BRANCH  49  50
ATOM     50  CG  HIS A   7      10.388  26.644  28.668  0.00  0.00    +0.082 A 
ATOM     51  CD2 HIS A   7      11.369  27.364  28.079  0.00  0.00    +0.115 A 
ATOM     52  NE2 HIS A   7      10.841  27.924  26.948  0.00  0.00    -0.221 NA
ATOM     53  CE1 HIS A   7       9.581  27.564  26.820  0.00  0.00    +0.199 A 
ATOM     54  ND1 HIS A   7       9.292  26.783  27.840  0.00  0.00    -0.227 NA
ENDBRANCH  49  50
ENDBRANCH  46  49
ENDBRANCH  44  46
ENDBRANCH  40  42
ENDBRANCH  37  40
ENDBRANCH  35  36
BRANCH  35  55
ATOM     55  CB  THR A   5       7.596  24.435  23.705  0.00  0.00    +0.137 C 
ATOM     56  CG2 THR A   5       8.249  25.090  22.479  0.00  0.00    +0.034 C 
BRANCH  55  57
ATOM     57  OG1 THR A   5       7.093  23.162  23.268  0.00  0.00    -0.382 OA
ATOM     58  HG1 THR A   5       6.647  22.707  24.026  0.00  0.00    +0.210 HD
ENDBRANCH  55  57
ENDBRANCH  35  55
ENDBRANCH  33  35
ENDBRANCH   1  31
BRANCH   1  59
ATOM     59  CB  ASN A   4      12.558  21.397  25.706  0.00  0.00    +0.114 C 
BRANCH  59  60
ATOM     60  CG  ASN A   4      12.012  21.055  27.076  0.00  0.00    +0.222 C 
ATOM     61  ND2 ASN A   4      12.766  20.202  27.793  0.00  0.00    -0.329 N 
ATOM     62 HD21 ASN A   4      12.453  19.899  28.737  0.00  0.00    +0.145 HD
ATOM     63 HD22 ASN A   4      13.662  19.846  27.403  0.00  0.00    +0.145 HD
ATOM     64  OD1 ASN A   4      10.942  21.493  27.517  0.00  0.00    -0.275 OA
ENDBRANCH  59  60
ENDBRANCH   1  59
TORSDOF 26
REMARK  Name = ../refined-set-2016/1qka/1qka_pocket.pdb
REMARK  281 active torsions:
REMARK  status: ('A' for Active; 'I' for Inactive)
REMARK    1  A    between atoms: _1  and  _3
REMARK    2  A    between atoms: _3  and  _4
REMARK    3  A    between atoms: _3  and  _6
REMARK    4  A    between atoms: _6  and  _7
REMARK    5  A    between atoms: _12  and  _14
REMARK    6  A    between atoms: _14  and  _15
REMARK    7  A    between atoms: _17  and  _19
REMARK    8  A    between atoms: _19  and  _20
REMARK    9  A    between atoms: _19  and  _22
REMARK   10  A    between atoms: _22  and  _23
REMARK   11  A    between atoms: _25  and  _27
REMARK   12  A    between atoms: _27  and  _28
REMARK   13  A    between atoms: _27  and  _30
REMARK   14  A    between atoms: _30  and  _31
REMARK   15  A    between atoms: _31  and  _32
REMARK   16  A    between atoms: _37  and  _39
REMARK   17  A    between atoms: _39  and  _40
REMARK   18  A    between atoms: _39  and  _42
REMARK   19  A    between atoms: _42  and  _43
REMARK   20  A    between atoms: _46  and  _48
REMARK   21  A    between atoms: _48  and  _49
REMARK   22  A    between atoms: _48  and  _51
REMARK   23  A    between atoms: _51  and  _52
REMARK   24  A    between atoms: _52  and  _53
REMARK   25  A    between atoms: _56  and  _58
REMARK   26  A    between atoms: _58  and  _59
REMARK   27  A    between atoms: _61  and  _63
REMARK   28  A    between atoms: _63  and  _64
REMARK   29  A    between atoms: _63  and  _66
REMARK   30  A    between atoms: _70  and  _71
REMARK   31  A    between atoms: _76  and  _78
REMARK   32  A    between atoms: _78  and  _79
REMARK   33  A    between atoms: _78  and  _81
REMARK   34  A    between atoms: _81  and  _82
REMARK   35  A    between atoms: _82  and  _83
REMARK   36  A    between atoms: _86  and  _88
REMARK   37  A    between atoms: _88  and  _89
REMARK   38  A    between atoms: _88  and  _91
REMARK   39  A    between atoms: _91  and  _92
REMARK   40  A    between atoms: _94  and  _96
REMARK   41  A    between atoms: _96  and  _97
REMARK   42  A    between atoms: _96  and  _99
REMARK   43  A    between atoms: _99  and  _100
REMARK   44  A    between atoms: _105  and  _107
REMARK   45  A    between atoms: _107  and  _108
REMARK   46  A    between atoms: _107  and  _110
REMARK   47  A    between atoms: _110  and  _111
REMARK   48  A    between atoms: _111  and  _112
REMARK   49  A    between atoms: _112  and  _113
REMARK   50  A    between atoms: _123  and  _124
REMARK   51  A    between atoms: _129  and  _131
REMARK   52  A    between atoms: _131  and  _132
REMARK   53  A    between atoms: _131  and  _134
REMARK   54  A    between atoms: _134  and  _135
REMARK   55  A    between atoms: _140  and  _141
REMARK   56  A    between atoms: _143  and  _145
REMARK   57  A    between atoms: _145  and  _146
REMARK   58  A    between atoms: _145  and  _148
REMARK   59  A    between atoms: _148  and  _149
REMARK   60  A    between atoms: _154  and  _155
REMARK   61  A    between atoms: _157  and  _159
REMARK   62  A    between atoms: _159  and  _160
REMARK   63  A    between atoms: _159  and  _162
REMARK   64  A    between atoms: _162  and  _163
REMARK   65  A    between atoms: _168  and  _169
REMARK   66  A    between atoms: _171  and  _173
REMARK   67  A    between atoms: _173  and  _174
REMARK   68  A    between atoms: _173  and  _176
REMARK   69  A    between atoms: _179  and  _181
REMARK   70  A    between atoms: _181  and  _182
REMARK   71  A    between atoms: _181  and  _184
REMARK   72  A    between atoms: _184  and  _185
REMARK   73  A    between atoms: _191  and  _192
REMARK   74  A    between atoms: _197  and  _199
REMARK   75  A    between atoms: _199  and  _200
REMARK   76  A    between atoms: _199  and  _202
REMARK   77  A    between atoms: _202  and  _203
REMARK   78  A    between atoms: _205  and  _207
REMARK   79  A    between atoms: _207  and  _208
REMARK   80  A    between atoms: _207  and  _210
REMARK   81  A    between atoms: _210  and  _211
REMARK   82  A    between atoms: _211  and  _212
REMARK   83  A    between atoms: _215  and  _217
REMARK   84  A    between atoms: _217  and  _218
REMARK   85  A    between atoms: _217  and  _220
REMARK   86  A    between atoms: _220  and  _221
REMARK   87  A    between atoms: _226  and  _227
REMARK   88  A    between atoms: _229  and  _231
REMARK   89  A    between atoms: _231  and  _232
REMARK   90  A    between atoms: _231  and  _234
REMARK   91  A    between atoms: _234  and  _235
REMARK   92  A    between atoms: _240  and  _242
REMARK   93  A    between atoms: _242  and  _243
REMARK   94  A    between atoms: _242  and  _245
REMARK   95  A    between atoms: _245  and  _246
REMARK   96  A    between atoms: _251  and  _253
REMARK   97  A    between atoms: _253  and  _254
REMARK   98  A    between atoms: _253  and  _256
REMARK   99  A    between atoms: _256  and  _257
REMARK  100  A    between atoms: _257  and  _258
REMARK  101  A    between atoms: _260  and  _262
REMARK  102  A    between atoms: _262  and  _263
REMARK  103  A    between atoms: _262  and  _265
REMARK  104  A    between atoms: _265  and  _266
REMARK  105  A    between atoms: _271  and  _272
REMARK  106  A    between atoms: _274  and  _276
REMARK  107  A    between atoms: _276  and  _277
REMARK  108  A    between atoms: _276  and  _279
REMARK  109  A    between atoms: _279  and  _280
REMARK  110  A    between atoms: _283  and  _285
REMARK  111  A    between atoms: _285  and  _286
REMARK  112  A    between atoms: _285  and  _288
REMARK  113  A    between atoms: _288  and  _289
REMARK  114  A    between atoms: _289  and  _497
REMARK  115  A    between atoms: _290  and  _292
REMARK  116  A    between atoms: _292  and  _293
REMARK  117  A    between atoms: _292  and  _295
REMARK  118  A    between atoms: _295  and  _296
REMARK  119  A    between atoms: _299  and  _301
REMARK  120  A    between atoms: _301  and  _302
REMARK  121  A    between atoms: _301  and  _304
REMARK  122  A    between atoms: _304  and  _305
REMARK  123  A    between atoms: _310  and  _311
REMARK  124  A    between atoms: _313  and  _315
REMARK  125  A    between atoms: _315  and  _316
REMARK  126  A    between atoms: _315  and  _318
REMARK  127  A    between atoms: _318  and  _319
REMARK  128  A    between atoms: _324  and  _325
REMARK  129  A    between atoms: _327  and  _329
REMARK  130  A    between atoms: _329  and  _330
REMARK  131  A    between atoms: _329  and  _332
REMARK  132  A    between atoms: _332  and  _333
REMARK  133  A    between atoms: _333  and  _334
REMARK  134  A    between atoms: _337  and  _339
REMARK  135  A    between atoms: _339  and  _340
REMARK  136  A    between atoms: _339  and  _342
REMARK  137  A    between atoms: _342  and  _343
REMARK  138  A    between atoms: _348  and  _349
REMARK  139  A    between atoms: _351  and  _353
REMARK  140  A    between atoms: _353  and  _354
REMARK  141  A    between atoms: _353  and  _356
REMARK  142  A    between atoms: _356  and  _357
REMARK  143  A    between atoms: _362  and  _364
REMARK  144  A    between atoms: _364  and  _365
REMARK  145  A    between atoms: _364  and  _367
REMARK  146  A    between atoms: _367  and  _368
REMARK  147  A    between atoms: _371  and  _373
REMARK  148  A    between atoms: _373  and  _374
REMARK  149  A    between atoms: _373  and  _376
REMARK  150  A    between atoms: _376  and  _377
REMARK  151  A    between atoms: _382  and  _384
REMARK  152  A    between atoms: _384  and  _385
REMARK  153  A    between atoms: _384  and  _387
REMARK  154  A    between atoms: _387  and  _388
REMARK  155  A    between atoms: _398  and  _400
REMARK  156  A    between atoms: _400  and  _401
REMARK  157  A    between atoms: _400  and  _403
REMARK  158  A    between atoms: _403  and  _404
REMARK  159  A    between atoms: _410  and  _412
REMARK  160  A    between atoms: _412  and  _413
REMARK  161  A    between atoms: _412  and  _415
REMARK  162  A    between atoms: _415  and  _416
REMARK  163  A    between atoms: _419  and  _421
REMARK  164  A    between atoms: _421  and  _422
REMARK  165  A    between atoms: _421  and  _424
REMARK  166  A    between atoms: _424  and  _425
REMARK  167  A    between atoms: _425  and  _426
REMARK  168  A    between atoms: _426  and  _427
REMARK  169  A    between atoms: _436  and  _438
REMARK  170  A    between atoms: _438  and  _439
REMARK  171  A    between atoms: _438  and  _441
REMARK  172  A    between atoms: _441  and  _442
REMARK  173  A    between atoms: _447  and  _449
REMARK  174  A    between atoms: _449  and  _450
REMARK  175  A    between atoms: _449  and  _452
REMARK  176  A    between atoms: _452  and  _453
REMARK  177  A    between atoms: _453  and  _454
REMARK  178  A    between atoms: _454  and  _455
REMARK  179  A    between atoms: _464  and  _466
REMARK  180  A    between atoms: _466  and  _467
REMARK  181  A    between atoms: _470  and  _472
REMARK  182  A    between atoms: _472  and  _473
REMARK  183  A    between atoms: _475  and  _477
REMARK  184  A    between atoms: _477  and  _478
REMARK  185  A    between atoms: _477  and  _480
REMARK  186  A    between atoms: _480  and  _481
REMARK  187  A    between atoms: _491  and  _493
REMARK  188  A    between atoms: _493  and  _494
REMARK  189  A    between atoms: _493  and  _496
REMARK  190  A    between atoms: _496  and  _497
REMARK  191  A    between atoms: _498  and  _500
REMARK  192  A    between atoms: _500  and  _501
REMARK  193  A    between atoms: _504  and  _506
REMARK  194  A    between atoms: _506  and  _507
REMARK  195  A    between atoms: _506  and  _509
REMARK  196  A    between atoms: _509  and  _510
REMARK  197  A    between atoms: _513  and  _515
REMARK  198  A    between atoms: _515  and  _516
REMARK  199  A    between atoms: _515  and  _518
REMARK  200  A    between atoms: _518  and  _519
REMARK  201  A    between atoms: _524  and  _525
REMARK  202  A    between atoms: _527  and  _529
REMARK  203  A    between atoms: _529  and  _530
REMARK  204  A    between atoms: _529  and  _532
REMARK  205  A    between atoms: _532  and  _533
REMARK  206  A    between atoms: _535  and  _537
REMARK  207  A    between atoms: _537  and  _538
REMARK  208  A    between atoms: _537  and  _540
REMARK  209  A    between atoms: _540  and  _541
REMARK  210  A    between atoms: _547  and  _549
REMARK  211  A    between atoms: _549  and  _550
REMARK  212  A    between atoms: _549  and  _552
REMARK  213  A    between atoms: _552  and  _553
REMARK  214  A    between atoms: _556  and  _558
REMARK  215  A    between atoms: _558  and  _559
REMARK  216  A    between atoms: _558  and  _561
REMARK  217  A    between atoms: _561  and  _562
REMARK  218  A    between atoms: _562  and  _563
REMARK  219  A    between atoms: _565  and  _567
REMARK  220  A    between atoms: _567  and  _568
REMARK  221  A    between atoms: _567  and  _570
REMARK  222  A    between atoms: _570  and  _571
REMARK  223  A    between atoms: _573  and  _575
REMARK  224  A    between atoms: _575  and  _576
REMARK  225  A    between atoms: _575  and  _578
REMARK  226  A    between atoms: _578  and  _579
REMARK  227  A    between atoms: _581  and  _583
REMARK  228  A    between atoms: _583  and  _584
REMARK  229  A    between atoms: _583  and  _586
REMARK  230  A    between atoms: _586  and  _587
REMARK  231  A    between atoms: _592  and  _594
REMARK  232  A    between atoms: _594  and  _595
REMARK  233  A    between atoms: _594  and  _597
REMARK  234  A    between atoms: _597  and  _598
REMARK  235  A    between atoms: _603  and  _605
REMARK  236  A    between atoms: _605  and  _606
REMARK  237  A    between atoms: _605  and  _608
REMARK  238  A    between atoms: _608  and  _609
REMARK  239  A    between atoms: _612  and  _614
REMARK  240  A    between atoms: _614  and  _615
REMARK  241  A    between atoms: _618  and  _620
REMARK  242  A    between atoms: _620  and  _621
REMARK  243  A    between atoms: _620  and  _623
REMARK  244  A    between atoms: _623  and  _624
REMARK  245  A    between atoms: _629  and  _631
REMARK  246  A    between atoms: _631  and  _632
REMARK  247  A    between atoms: _631  and  _634
REMARK  248  A    between atoms: _634  and  _635
REMARK  249  A    between atoms: _640  and  _641
REMARK  250  A    between atoms: _643  and  _645
REMARK  251  A    between atoms: _645  and  _646
REMARK  252  A    between atoms: _645  and  _648
REMARK  253  A    between atoms: _648  and  _649
REMARK  254  A    between atoms: _654  and  _655
REMARK  255  A    between atoms: _657  and  _659
REMARK  256  A    between atoms: _659  and  _660
REMARK  257  A    between atoms: _659  and  _662
REMARK  258  A    between atoms: _665  and  _667
REMARK  259  A    between atoms: _667  and  _668
REMARK  260  A    between atoms: _667  and  _670
REMARK  261  A    between atoms: _670  and  _671
REMARK  262  A    between atoms: _676  and  _678
REMARK  263  A    between atoms: _678  and  _679
REMARK  264  A    between atoms: _682  and  _684
REMARK  265  A    between atoms: _684  and  _685
REMARK  266  A    between atoms: _684  and  _687
REMARK  267  A    between atoms: _687  and  _688
REMARK  268  A    between atoms: _688  and  _689
REMARK  269  A    between atoms: _689  and  _690
REMARK  270  A    between atoms: _699  and  _701
REMARK  271  A    between atoms: _701  and  _702
REMARK  272  A    between atoms: _701  and  _704
REMARK  273  A    between atoms: _704  and  _705
REMARK  274  A    between atoms: _708  and  _710
REMARK  275  A    between atoms: _710  and  _711
REMARK  276  A    between atoms: _710  and  _713
REMARK  277  A    between atoms: _713  and  _714
REMARK  278  A    between atoms: _717  and  _719
REMARK  279  A    between atoms: _719  and  _720
REMARK  280  A    between atoms: _719  and  _722
REMARK  281  A    between atoms: _722  and  _723
REMARK                            x       y       z     vdW  Elec       q    Type
REMARK                         _______ _______ _______ _____ _____    ______ ____
ROOT
ATOM      1  CG  TYR A   1      -7.469  13.521  22.673  0.00  0.00    -0.020 A 
ATOM      2  CD2 TYR A   1      -8.253  14.609  23.027  0.00  0.00    -0.001 A 
ATOM      3  CE2 TYR A   1      -8.494  15.654  22.147  0.00  0.00    +0.036 A 
ATOM      4  CZ  TYR A   1      -7.948  15.612  20.889  0.00  0.00    +0.134 A 
ATOM      5  CE1 TYR A   1      -7.167  14.546  20.488  0.00  0.00    +0.036 A 
ATOM      6  CD1 TYR A   1      -6.939  13.506  21.386  0.00  0.00    -0.001 A 
ENDROOT
BRANCH   4   7
ATOM      7  OH  TYR A   1      -8.182  16.629  19.992  0.00  0.00    -0.506 OA
ATOM      8  HH  TYR A   1      -7.713  16.433  19.142  0.00  0.00    +0.292 HD
ENDBRANCH   4   7
BRANCH   1   9
ATOM      9  CB  TYR A   1      -7.239  12.383  23.636  0.00  0.00    +0.051 C 
BRANCH   9  10
ATOM     10  CA  TYR A   1      -5.886  12.223  24.318  0.00  0.00    +0.137 C 
BRANCH  10  11
ATOM     11  N   TYR A   1      -5.500  13.410  25.069  0.00  0.00    -0.239 NA
ATOM     12  H   TYR A   1      -4.904  14.149  24.644  0.00  0.00    +0.142 HD
ENDBRANCH  10  11
BRANCH  10  13
ATOM     13  C   TYR A   1      -4.835  11.870  23.260  0.00  0.00    +0.224 C 
ATOM     14  O   TYR A   1      -4.033  12.735  22.913  0.00  0.00    -0.287 OA
ENDBRANCH  10  13
ENDBRANCH   9  10
ENDBRANCH   1   9
TORSDOF 5
REMARK  Name = ../refined-set-2016/1qka/1qka_pocket.pdb
REMARK  281 active torsions:
REMARK  status: ('A' for Active; 'I' for Inactive)
REMARK    1  A    between atoms: _1  and  _3
REMARK    2  A    between atoms: _3  and  _4
REMARK    3  A    between atoms: _3  and  _6
REMARK    4  A    between atoms: _6  and  _7
REMARK    5  A    between atoms: _12  and  _14
REMARK    6  A    between atoms: _14  and  _15
REMARK    7  A    between atoms: _17  and  _19
REMARK    8  A    between atoms: _19  and  _20
REMARK    9  A    between atoms: _19  and  _22
REMARK   10  A    between atoms: _22  and  _23
REMARK   11  A    between atoms: _25  and  _27
REMARK   12  A    between atoms: _27  and  _28
REMARK   13  A    between atoms: _27  and  _30
REMARK   14  A    between atoms: _30  and  _31
REMARK   15  A    between atoms: _31  and  _32
REMARK   16  A    between atoms: _37  and  _39
REMARK   17  A    between atoms: _39  and  _40
REMARK   18  A    between atoms: _39  and  _42
REMARK   19  A    between atoms: _42  and  _43
REMARK   20  A    between atoms: _46  and  _48
REMARK   21  A    between atoms: _48  and  _49
REMARK   22  A    between atoms: _48  and  _51
REMARK   23  A    between atoms: _51  and  _52
REMARK   24  A    between atoms: _52  and  _53
REMARK   25  A    between atoms: _56  and  _58
REMARK   26  A    between atoms: _58  and  _59
REMARK   27  A    between atoms: _61  and  _63
REMARK   28  A    between atoms: _63  and  _64
REMARK   29  A    between atoms: _63  and  _66
REMARK   30  A    between atoms: _70  and  _71
REMARK   31  A    between atoms: _76  and  _78
REMARK   32  A    between atoms: _78  and  _79
REMARK   33  A    between atoms: _78  and  _81
REMARK   34  A    between atoms: _81  and  _82
REMARK   35  A    between atoms: _82  and  _83
REMARK   36  A    between atoms: _86  and  _88
REMARK   37  A    between atoms: _88  and  _89
REMARK   38  A    between atoms: _88  and  _91
REMARK   39  A    between atoms: _91  and  _92
REMARK   40  A    between atoms: _94  and  _96
REMARK   41  A    between atoms: _96  and  _97
REMARK   42  A    between atoms: _96  and  _99
REMARK   43  A    between atoms: _99  and  _100
REMARK   44  A    between atoms: _105  and  _107
REMARK   45  A    between atoms: _107  and  _108
REMARK   46  A    between atoms: _107  and  _110
REMARK   47  A    between atoms: _110  and  _111
REMARK   48  A    between atoms: _111  and  _112
REMARK   49  A    between atoms: _112  and  _113
REMARK   50  A    between atoms: _123  and  _124
REMARK   51  A    between atoms: _129  and  _131
REMARK   52  A    between atoms: _131  and  _132
REMARK   53  A    between atoms: _131  and  _134
REMARK   54  A    between atoms: _134  and  _135
REMARK   55  A    between atoms: _140  and  _141
REMARK   56  A    between atoms: _143  and  _145
REMARK   57  A    between atoms: _145  and  _146
REMARK   58  A    between atoms: _145  and  _148
REMARK   59  A    between atoms: _148  and  _149
REMARK   60  A    between atoms: _154  and  _155
REMARK   61  A    between atoms: _157  and  _159
REMARK   62  A    between atoms: _159  and  _160
REMARK   63  A    between atoms: _159  and  _162
REMARK   64  A    between atoms: _162  and  _163
REMARK   65  A    between atoms: _168  and  _169
REMARK   66  A    between atoms: _171  and  _173
REMARK   67  A    between atoms: _173  and  _174
REMARK   68  A    between atoms: _173  and  _176
REMARK   69  A    between atoms: _179  and  _181
REMARK   70  A    between atoms: _181  and  _182
REMARK   71  A    between atoms: _181  and  _184
REMARK   72  A    between atoms: _184  and  _185
REMARK   73  A    between atoms: _191  and  _192
REMARK   74  A    between atoms: _197  and  _199
REMARK   75  A    between atoms: _199  and  _200
REMARK   76  A    between atoms: _199  and  _202
REMARK   77  A    between atoms: _202  and  _203
REMARK   78  A    between atoms: _205  and  _207
REMARK   79  A    between atoms: _207  and  _208
REMARK   80  A    between atoms: _207  and  _210
REMARK   81  A    between atoms: _210  and  _211
REMARK   82  A    between atoms: _211  and  _212
REMARK   83  A    between atoms: _215  and  _217
REMARK   84  A    between atoms: _217  and  _218
REMARK   85  A    between atoms: _217  and  _220
REMARK   86  A    between atoms: _220  and  _221
REMARK   87  A    between atoms: _226  and  _227
REMARK   88  A    between atoms: _229  and  _231
REMARK   89  A    between atoms: _231  and  _232
REMARK   90  A    between atoms: _231  and  _234
REMARK   91  A    between atoms: _234  and  _235
REMARK   92  A    between atoms: _240  and  _242
REMARK   93  A    between atoms: _242  and  _243
REMARK   94  A    between atoms: _242  and  _245
REMARK   95  A    between atoms: _245  and  _246
REMARK   96  A    between atoms: _251  and  _253
REMARK   97  A    between atoms: _253  and  _254
REMARK   98  A    between atoms: _253  and  _256
REMARK   99  A    between atoms: _256  and  _257
REMARK  100  A    between atoms: _257  and  _258
REMARK  101  A    between atoms: _260  and  _262
REMARK  102  A    between atoms: _262  and  _263
REMARK  103  A    between atoms: _262  and  _265
REMARK  104  A    between atoms: _265  and  _266
REMARK  105  A    between atoms: _271  and  _272
REMARK  106  A    between atoms: _274  and  _276
REMARK  107  A    between atoms: _276  and  _277
REMARK  108  A    between atoms: _276  and  _279
REMARK  109  A    between atoms: _279  and  _280
REMARK  110  A    between atoms: _283  and  _285
REMARK  111  A    between atoms: _285  and  _286
REMARK  112  A    between atoms: _285  and  _288
REMARK  113  A    between atoms: _288  and  _289
REMARK  114  A    between atoms: _289  and  _497
REMARK  115  A    between atoms: _290  and  _292
REMARK  116  A    between atoms: _292  and  _293
REMARK  117  A    between atoms: _292  and  _295
REMARK  118  A    between atoms: _295  and  _296
REMARK  119  A    between atoms: _299  and  _301
REMARK  120  A    between atoms: _301  and  _302
REMARK  121  A    between atoms: _301  and  _304
REMARK  122  A    between atoms: _304  and  _305
REMARK  123  A    between atoms: _310  and  _311
REMARK  124  A    between atoms: _313  and  _315
REMARK  125  A    between atoms: _315  and  _316
REMARK  126  A    between atoms: _315  and  _318
REMARK  127  A    between atoms: _318  and  _319
REMARK  128  A    between atoms: _324  and  _325
REMARK  129  A    between atoms: _327  and  _329
REMARK  130  A    between atoms: _329  and  _330
REMARK  131  A    between atoms: _329  and  _332
REMARK  132  A    between atoms: _332  and  _333
REMARK  133  A    between atoms: _333  and  _334
REMARK  134  A    between atoms: _337  and  _339
REMARK  135  A    between atoms: _339  and  _340
REMARK  136  A    between atoms: _339  and  _342
REMARK  137  A    between atoms: _342  and  _343
REMARK  138  A    between atoms: _348  and  _349
REMARK  139  A    between atoms: _351  and  _353
REMARK  140  A    between atoms: _353  and  _354
REMARK  141  A    between atoms: _353  and  _356
REMARK  142  A    between atoms: _356  and  _357
REMARK  143  A    between atoms: _362  and  _364
REMARK  144  A    between atoms: _364  and  _365
REMARK  145  A    between atoms: _364  and  _367
REMARK  146  A    between atoms: _367  and  _368
REMARK  147  A    between atoms: _371  and  _373
REMARK  148  A    between atoms: _373  and  _374
REMARK  149  A    between atoms: _373  and  _376
REMARK  150  A    between atoms: _376  and  _377
REMARK  151  A    between atoms: _382  and  _384
REMARK  152  A    between atoms: _384  and  _385
REMARK  153  A    between atoms: _384  and  _387
REMARK  154  A    between atoms: _387  and  _388
REMARK  155  A    between atoms: _398  and  _400
REMARK  156  A    between atoms: _400  and  _401
REMARK  157  A    between atoms: _400  and  _403
REMARK  158  A    between atoms: _403  and  _404
REMARK  159  A    between atoms: _410  and  _412
REMARK  160  A    between atoms: _412  and  _413
REMARK  161  A    between atoms: _412  and  _415
REMARK  162  A    between atoms: _415  and  _416
REMARK  163  A    between atoms: _419  and  _421
REMARK  164  A    between atoms: _421  and  _422
REMARK  165  A    between atoms: _421  and  _424
REMARK  166  A    between atoms: _424  and  _425
REMARK  167  A    between atoms: _425  and  _426
REMARK  168  A    between atoms: _426  and  _427
REMARK  169  A    between atoms: _436  and  _438
REMARK  170  A    between atoms: _438  and  _439
REMARK  171  A    between atoms: _438  and  _441
REMARK  172  A    between atoms: _441  and  _442
REMARK  173  A    between atoms: _447  and  _449
REMARK  174  A    between atoms: _449  and  _450
REMARK  175  A    between atoms: _449  and  _452
REMARK  176  A    between atoms: _452  and  _453
REMARK  177  A    between atoms: _453  and  _454
REMARK  178  A    between atoms: _454  and  _455
REMARK  179  A    between atoms: _464  and  _466
REMARK  180  A    between atoms: _466  and  _467
REMARK  181  A    between atoms: _470  and  _472
REMARK  182  A    between atoms: _472  and  _473
REMARK  183  A    between atoms: _475  and  _477
REMARK  184  A    between atoms: _477  and  _478
REMARK  185  A    between atoms: _477  and  _480
REMARK  186  A    between atoms: _480  and  _481
REMARK  187  A    between atoms: _491  and  _493
REMARK  188  A    between atoms: _493  and  _494
REMARK  189  A    between atoms: _493  and  _496
REMARK  190  A    between atoms: _496  and  _497
REMARK  191  A    between atoms: _498  and  _500
REMARK  192  A    between atoms: _500  and  _501
REMARK  193  A    between atoms: _504  and  _506
REMARK  194  A    between atoms: _506  and  _507
REMARK  195  A    between atoms: _506  and  _509
REMARK  196  A    between atoms: _509  and  _510
REMARK  197  A    between atoms: _513  and  _515
REMARK  198  A    between atoms: _515  and  _516
REMARK  199  A    between atoms: _515  and  _518
REMARK  200  A    between atoms: _518  and  _519
REMARK  201  A    between atoms: _524  and  _525
REMARK  202  A    between atoms: _527  and  _529
REMARK  203  A    between atoms: _529  and  _530
REMARK  204  A    between atoms: _529  and  _532
REMARK  205  A    between atoms: _532  and  _533
REMARK  206  A    between atoms: _535  and  _537
REMARK  207  A    between atoms: _537  and  _538
REMARK  208  A    between atoms: _537  and  _540
REMARK  209  A    between atoms: _540  and  _541
REMARK  210  A    between atoms: _547  and  _549
REMARK  211  A    between atoms: _549  and  _550
REMARK  212  A    between atoms: _549  and  _552
REMARK  213  A    between atoms: _552  and  _553
REMARK  214  A    between atoms: _556  and  _558
REMARK  215  A    between atoms: _558  and  _559
REMARK  216  A    between atoms: _558  and  _561
REMARK  217  A    between atoms: _561  and  _562
REMARK  218  A    between atoms: _562  and  _563
REMARK  219  A    between atoms: _565  and  _567
REMARK  220  A    between atoms: _567  and  _568
REMARK  221  A    between atoms: _567  and  _570
REMARK  222  A    between atoms: _570  and  _571
REMARK  223  A    between atoms: _573  and  _575
REMARK  224  A    between atoms: _575  and  _576
REMARK  225  A    between atoms: _575  and  _578
REMARK  226  A    between atoms: _578  and  _579
REMARK  227  A    between atoms: _581  and  _583
REMARK  228  A    between atoms: _583  and  _584
REMARK  229  A    between atoms: _583  and  _586
REMARK  230  A    between atoms: _586  and  _587
REMARK  231  A    between atoms: _592  and  _594
REMARK  232  A    between atoms: _594  and  _595
REMARK  233  A    between atoms: _594  and  _597
REMARK  234  A    between atoms: _597  and  _598
REMARK  235  A    between atoms: _603  and  _605
REMARK  236  A    between atoms: _605  and  _606
REMARK  237  A    between atoms: _605  and  _608
REMARK  238  A    between atoms: _608  and  _609
REMARK  239  A    between atoms: _612  and  _614
REMARK  240  A    between atoms: _614  and  _615
REMARK  241  A    between atoms: _618  and  _620
REMARK  242  A    between atoms: _620  and  _621
REMARK  243  A    between atoms: _620  and  _623
REMARK  244  A    between atoms: _623  and  _624
REMARK  245  A    between atoms: _629  and  _631
REMARK  246  A    between atoms: _631  and  _632
REMARK  247  A    between atoms: _631  and  _634
REMARK  248  A    between atoms: _634  and  _635
REMARK  249  A    between atoms: _640  and  _641
REMARK  250  A    between atoms: _643  and  _645
REMARK  251  A    between atoms: _645  and  _646
REMARK  252  A    between atoms: _645  and  _648
REMARK  253  A    between atoms: _648  and  _649
REMARK  254  A    between atoms: _654  and  _655
REMARK  255  A    between atoms: _657  and  _659
REMARK  256  A    between atoms: _659  and  _660
REMARK  257  A    between atoms: _659  and  _662
REMARK  258  A    between atoms: _665  and  _667
REMARK  259  A    between atoms: _667  and  _668
REMARK  260  A    between atoms: _667  and  _670
REMARK  261  A    between atoms: _670  and  _671
REMARK  262  A    between atoms: _676  and  _678
REMARK  263  A    between atoms: _678  and  _679
REMARK  264  A    between atoms: _682  and  _684
REMARK  265  A    between atoms: _684  and  _685
REMARK  266  A    between atoms: _684  and  _687
REMARK  267  A    between atoms: _687  and  _688
REMARK  268  A    between atoms: _688  and  _689
REMARK  269  A    between atoms: _689  and  _690
REMARK  270  A    between atoms: _699  and  _701
REMARK  271  A    between atoms: _701  and  _702
REMARK  272  A    between atoms: _701  and  _704
REMARK  273  A    between atoms: _704  and  _705
REMARK  274  A    between atoms: _708  and  _710
REMARK  275  A    between atoms: _710  and  _711
REMARK  276  A    between atoms: _710  and  _713
REMARK  277  A    between atoms: _713  and  _714
REMARK  278  A    between atoms: _717  and  _719
REMARK  279  A    between atoms: _719  and  _720
REMARK  280  A    between atoms: _719  and  _722
REMARK  281  A    between atoms: _722  and  _723
REMARK                            x       y       z     vdW  Elec       q    Type
REMARK                         _______ _______ _______ _____ _____    ______ ____
ROOT
ATOM      1  CA  ASN A   3      -6.342  11.099  12.121  0.00  0.00    +0.158 C 
ENDROOT
BRANCH   1   4
ATOM      2  C   VAL A   2      -6.819  10.663  14.443  0.00  0.00    +0.241 C 
ATOM      3  O   VAL A   2      -6.986  11.866  14.655  0.00  0.00    -0.273 OA
ATOM      4  N   ASN A   3      -6.452  10.200  13.268  0.00  0.00    -0.297 N 
ATOM      5  H   ASN A   3      -6.239   9.188  13.154  0.00  0.00    +0.150 HD
BRANCH   2   6
ATOM      6  CA  VAL A   2      -7.018   9.631  15.571  0.00  0.00    +0.148 C 
BRANCH   6   9
ATOM      7  C   TYR A   1      -5.591  10.241  17.412  0.00  0.00    +0.239 C 
ATOM      8  O   TYR A   1      -4.799   9.332  17.215  0.00  0.00    -0.274 OA
ATOM      9  N   VAL A   2      -6.740  10.415  16.758  0.00  0.00    -0.297 N 
ATOM     10  H   VAL A   2      -7.434  11.111  17.098  0.00  0.00    +0.150 HD
BRANCH   7  11
ATOM     11  CA  TYR A   1      -5.241  11.430  18.314  0.00  0.00    +0.149 C 
BRANCH  11  12
ATOM     12  N   TYR A   1      -4.447  11.143  19.473  0.00  0.00    -0.238 NA
ATOM     13  H   TYR A   1      -3.475  11.508  19.525  0.00  0.00    +0.142 HD
ENDBRANCH  11  12
BRANCH  11  14
ATOM     14  CB  TYR A   1      -4.479  12.321  17.306  0.00  0.00    +0.053 C 
BRANCH  14  15
ATOM     15  CG  TYR A   1      -4.211  13.775  17.572  0.00  0.00    -0.020 A 
ATOM     16  CD2 TYR A   1      -3.478  14.223  18.648  0.00  0.00    -0.001 A 
ATOM     17  CE2 TYR A   1      -3.217  15.573  18.854  0.00  0.00    +0.036 A 
ATOM     18  CZ  TYR A   1      -3.732  16.488  17.951  0.00  0.00    +0.134 A 
ATOM     19  CE1 TYR A   1      -4.464  16.084  16.866  0.00  0.00    +0.036 A 
ATOM     20  CD1 TYR A   1      -4.701  14.734  16.673  0.00  0.00    -0.001 A 
BRANCH  18  21
ATOM     21  OH  TYR A   1      -3.475  17.820  18.146  0.00  0.00    -0.506 OA
ATOM     22  HH  TYR A   1      -2.971  18.175  17.371  0.00  0.00    +0.292 HD
ENDBRANCH  18  21
ENDBRANCH  14  15
ENDBRANCH  11  14
ENDBRANCH   7  11
ENDBRANCH   6   9
BRANCH   6  23
ATOM     23  CB  VAL A   2      -8.406   8.992  15.395  0.00  0.00    +0.027 C 
ATOM     24  CG2 VAL A   2      -8.479   7.794  16.338  0.00  0.00    +0.002 C 
ATOM     25  CG1 VAL A   2      -9.514  10.001  15.604  0.00  0.00    +0.002 C 
ENDBRANCH   6  23
ENDBRANCH   2   6
ENDBRANCH   1   4
BRANCH   1  26
ATOM     26  C   ASN A   3      -7.687  11.181  11.406  0.00  0.00    +0.241 C 
ATOM     27  N   ALA A   4      -8.467  12.237  11.615  0.00  0.00    -0.297 N 
ATOM     28  H   ALA A   4      -8.150  12.992  12.257  0.00  0.00    +0.150 HD
ATOM     29  O   ASN A   3      -7.921  10.311  10.566  0.00  0.00    -0.273 OA
BRANCH  27  30
ATOM     30  CA  ALA A   4      -9.770  12.349  10.950  0.00  0.00    +0.149 C 
ATOM     31  CB  ALA A   4     -10.829  12.615  12.008  0.00  0.00    +0.031 C 
BRANCH  30  32
ATOM     32  C   ALA A   4      -9.776  13.492   9.944  0.00  0.00    +0.241 C 
ATOM     33  O   ALA A   4      -9.363  14.617  10.258  0.00  0.00    -0.273 OA
ATOM     34  N   ARG A   5     -10.160  13.223   8.704  0.00  0.00    -0.298 N 
ATOM     35  H   ARG A   5     -10.450  12.255   8.457  0.00  0.00    +0.150 HD
BRANCH  34  36
ATOM     36  CA  ARG A   5     -10.182  14.261   7.680  0.00  0.00    +0.137 C 
BRANCH  36  37
ATOM     37  C   ARG A   5     -11.161  13.825   6.602  0.00  0.00    +0.227 C 
ATOM     38  O   ARG A   5     -11.571  12.653   6.622  0.00  0.00    -0.286 OA
ENDBRANCH  36  37
BRANCH  36  39
ATOM     39  CB  ARG A   5      -8.793  14.457   7.045  0.00  0.00    +0.031 C 
BRANCH  39  40
ATOM     40  CG  ARG A   5      -8.222  13.074   6.691  0.00  0.00    +0.045 C 
BRANCH  40  41
ATOM     41  CD  ARG A   5      -7.322  13.033   5.501  0.00  0.00    +0.174 C 
BRANCH  41  42
ATOM     42  NE  ARG A   5      -6.270  14.009   5.398  0.00  0.00    -0.265 N 
ATOM     43  CZ  ARG A   5      -5.082  14.141   5.950  0.00  0.00    +0.342 C 
ATOM     44  NH2 ARG A   5      -4.631  13.255   6.806  0.00  0.00    -0.292 N 
ATOM     45 HH21 ARG A   5      -3.690  13.376   7.232  0.00  0.00    +0.255 HD
ATOM     46 HH22 ARG A   5      -5.214  12.432   7.058  0.00  0.00    +0.255 HD
ATOM     47  NH1 ARG A   5      -4.331  15.190   5.637  0.00  0.00    -0.292 N 
ATOM     48 HH11 ARG A   5      -3.391  15.304   6.067  0.00  0.00    +0.255 HD
ATOM     49 HH12 ARG A   5      -4.683  15.898   4.961  0.00  0.00    +0.255 HD
ATOM     50  HE  ARG A   5      -6.499  14.782   4.741  0.00  0.00    +0.259 HD
ENDBRANCH  41  42
ENDBRANCH  40  41
ENDBRANCH  39  40
ENDBRANCH  36  39
ENDBRANCH  34  36
ENDBRANCH  30  32
ENDBRANCH  27  30
ENDBRANCH   1  26
BRANCH   1  51
ATOM     51  CB  ASN A   3      -5.299  10.528  11.158  0.00  0.00    +0.114 C 
BRANCH  51  52
ATOM     52  CG  ASN A   3      -4.825  11.618  10.196  0.00  0.00    +0.222 C 
ATOM     53  OD1 ASN A   3      -5.397  12.704  10.199  0.00  0.00    -0.275 OA
ATOM     54  ND2 ASN A   3      -3.780  11.308   9.446  0.00  0.00    -0.329 N 
ATOM     55 HD21 ASN A   3      -3.358  10.360   9.509  0.00  0.00    +0.145 HD
ATOM     56 HD22 ASN A   3      -3.381  12.013   8.793  0.00  0.00    +0.145 HD
ENDBRANCH  51  52
ENDBRANCH   1  51
TORSDOF 20
REMARK  Name = ../refined-set-2016/1qka/1qka_pocket.pdb
REMARK  281 active torsions:
REMARK  status: ('A' for Active; 'I' for Inactive)
REMARK    1  A    between atoms: _1  and  _3
REMARK    2  A    between atoms: _3  and  _4
REMARK    3  A    between atoms: _3  and  _6
REMARK    4  A    between atoms: _6  and  _7
REMARK    5  A    between atoms: _12  and  _14
REMARK    6  A    between atoms: _14  and  _15
REMARK    7  A    between atoms: _17  and  _19
REMARK    8  A    between atoms: _19  and  _20
REMARK    9  A    between atoms: _19  and  _22
REMARK   10  A    between atoms: _22  and  _23
REMARK   11  A    between atoms: _25  and  _27
REMARK   12  A    between atoms: _27  and  _28
REMARK   13  A    between atoms: _27  and  _30
REMARK   14  A    between atoms: _30  and  _31
REMARK   15  A    between atoms: _31  and  _32
REMARK   16  A    between atoms: _37  and  _39
REMARK   17  A    between atoms: _39  and  _40
REMARK   18  A    between atoms: _39  and  _42
REMARK   19  A    between atoms: _42  and  _43
REMARK   20  A    between atoms: _46  and  _48
REMARK   21  A    between atoms: _48  and  _49
REMARK   22  A    between atoms: _48  and  _51
REMARK   23  A    between atoms: _51  and  _52
REMARK   24  A    between atoms: _52  and  _53
REMARK   25  A    between atoms: _56  and  _58
REMARK   26  A    between atoms: _58  and  _59
REMARK   27  A    between atoms: _61  and  _63
REMARK   28  A    between atoms: _63  and  _64
REMARK   29  A    between atoms: _63  and  _66
REMARK   30  A    between atoms: _70  and  _71
REMARK   31  A    between atoms: _76  and  _78
REMARK   32  A    between atoms: _78  and  _79
REMARK   33  A    between atoms: _78  and  _81
REMARK   34  A    between atoms: _81  and  _82
REMARK   35  A    between atoms: _82  and  _83
REMARK   36  A    between atoms: _86  and  _88
REMARK   37  A    between atoms: _88  and  _89
REMARK   38  A    between atoms: _88  and  _91
REMARK   39  A    between atoms: _91  and  _92
REMARK   40  A    between atoms: _94  and  _96
REMARK   41  A    between atoms: _96  and  _97
REMARK   42  A    between atoms: _96  and  _99
REMARK   43  A    between atoms: _99  and  _100
REMARK   44  A    between atoms: _105  and  _107
REMARK   45  A    between atoms: _107  and  _108
REMARK   46  A    between atoms: _107  and  _110
REMARK   47  A    between atoms: _110  and  _111
REMARK   48  A    between atoms: _111  and  _112
REMARK   49  A    between atoms: _112  and  _113
REMARK   50  A    between atoms: _123  and  _124
REMARK   51  A    between atoms: _129  and  _131
REMARK   52  A    between atoms: _131  and  _132
REMARK   53  A    between atoms: _131  and  _134
REMARK   54  A    between atoms: _134  and  _135
REMARK   55  A    between atoms: _140  and  _141
REMARK   56  A    between atoms: _143  and  _145
REMARK   57  A    between atoms: _145  and  _146
REMARK   58  A    between atoms: _145  and  _148
REMARK   59  A    between atoms: _148  and  _149
REMARK   60  A    between atoms: _154  and  _155
REMARK   61  A    between atoms: _157  and  _159
REMARK   62  A    between atoms: _159  and  _160
REMARK   63  A    between atoms: _159  and  _162
REMARK   64  A    between atoms: _162  and  _163
REMARK   65  A    between atoms: _168  and  _169
REMARK   66  A    between atoms: _171  and  _173
REMARK   67  A    between atoms: _173  and  _174
REMARK   68  A    between atoms: _173  and  _176
REMARK   69  A    between atoms: _179  and  _181
REMARK   70  A    between atoms: _181  and  _182
REMARK   71  A    between atoms: _181  and  _184
REMARK   72  A    between atoms: _184  and  _185
REMARK   73  A    between atoms: _191  and  _192
REMARK   74  A    between atoms: _197  and  _199
REMARK   75  A    between atoms: _199  and  _200
REMARK   76  A    between atoms: _199  and  _202
REMARK   77  A    between atoms: _202  and  _203
REMARK   78  A    between atoms: _205  and  _207
REMARK   79  A    between atoms: _207  and  _208
REMARK   80  A    between atoms: _207  and  _210
REMARK   81  A    between atoms: _210  and  _211
REMARK   82  A    between atoms: _211  and  _212
REMARK   83  A    between atoms: _215  and  _217
REMARK   84  A    between atoms: _217  and  _218
REMARK   85  A    between atoms: _217  and  _220
REMARK   86  A    between atoms: _220  and  _221
REMARK   87  A    between atoms: _226  and  _227
REMARK   88  A    between atoms: _229  and  _231
REMARK   89  A    between atoms: _231  and  _232
REMARK   90  A    between atoms: _231  and  _234
REMARK   91  A    between atoms: _234  and  _235
REMARK   92  A    between atoms: _240  and  _242
REMARK   93  A    between atoms: _242  and  _243
REMARK   94  A    between atoms: _242  and  _245
REMARK   95  A    between atoms: _245  and  _246
REMARK   96  A    between atoms: _251  and  _253
REMARK   97  A    between atoms: _253  and  _254
REMARK   98  A    between atoms: _253  and  _256
REMARK   99  A    between atoms: _256  and  _257
REMARK  100  A    between atoms: _257  and  _258
REMARK  101  A    between atoms: _260  and  _262
REMARK  102  A    between atoms: _262  and  _263
REMARK  103  A    between atoms: _262  and  _265
REMARK  104  A    between atoms: _265  and  _266
REMARK  105  A    between atoms: _271  and  _272
REMARK  106  A    between atoms: _274  and  _276
REMARK  107  A    between atoms: _276  and  _277
REMARK  108  A    between atoms: _276  and  _279
REMARK  109  A    between atoms: _279  and  _280
REMARK  110  A    between atoms: _283  and  _285
REMARK  111  A    between atoms: _285  and  _286
REMARK  112  A    between atoms: _285  and  _288
REMARK  113  A    between atoms: _288  and  _289
REMARK  114  A    between atoms: _289  and  _497
REMARK  115  A    between atoms: _290  and  _292
REMARK  116  A    between atoms: _292  and  _293
REMARK  117  A    between atoms: _292  and  _295
REMARK  118  A    between atoms: _295  and  _296
REMARK  119  A    between atoms: _299  and  _301
REMARK  120  A    between atoms: _301  and  _302
REMARK  121  A    between atoms: _301  and  _304
REMARK  122  A    between atoms: _304  and  _305
REMARK  123  A    between atoms: _310  and  _311
REMARK  124  A    between atoms: _313  and  _315
REMARK  125  A    between atoms: _315  and  _316
REMARK  126  A    between atoms: _315  and  _318
REMARK  127  A    between atoms: _318  and  _319
REMARK  128  A    between atoms: _324  and  _325
REMARK  129  A    between atoms: _327  and  _329
REMARK  130  A    between atoms: _329  and  _330
REMARK  131  A    between atoms: _329  and  _332
REMARK  132  A    between atoms: _332  and  _333
REMARK  133  A    between atoms: _333  and  _334
REMARK  134  A    between atoms: _337  and  _339
REMARK  135  A    between atoms: _339  and  _340
REMARK  136  A    between atoms: _339  and  _342
REMARK  137  A    between atoms: _342  and  _343
REMARK  138  A    between atoms: _348  and  _349
REMARK  139  A    between atoms: _351  and  _353
REMARK  140  A    between atoms: _353  and  _354
REMARK  141  A    between atoms: _353  and  _356
REMARK  142  A    between atoms: _356  and  _357
REMARK  143  A    between atoms: _362  and  _364
REMARK  144  A    between atoms: _364  and  _365
REMARK  145  A    between atoms: _364  and  _367
REMARK  146  A    between atoms: _367  and  _368
REMARK  147  A    between atoms: _371  and  _373
REMARK  148  A    between atoms: _373  and  _374
REMARK  149  A    between atoms: _373  and  _376
REMARK  150  A    between atoms: _376  and  _377
REMARK  151  A    between atoms: _382  and  _384
REMARK  152  A    between atoms: _384  and  _385
REMARK  153  A    between atoms: _384  and  _387
REMARK  154  A    between atoms: _387  and  _388
REMARK  155  A    between atoms: _398  and  _400
REMARK  156  A    between atoms: _400  and  _401
REMARK  157  A    between atoms: _400  and  _403
REMARK  158  A    between atoms: _403  and  _404
REMARK  159  A    between atoms: _410  and  _412
REMARK  160  A    between atoms: _412  and  _413
REMARK  161  A    between atoms: _412  and  _415
REMARK  162  A    between atoms: _415  and  _416
REMARK  163  A    between atoms: _419  and  _421
REMARK  164  A    between atoms: _421  and  _422
REMARK  165  A    between atoms: _421  and  _424
REMARK  166  A    between atoms: _424  and  _425
REMARK  167  A    between atoms: _425  and  _426
REMARK  168  A    between atoms: _426  and  _427
REMARK  169  A    between atoms: _436  and  _438
REMARK  170  A    between atoms: _438  and  _439
REMARK  171  A    between atoms: _438  and  _441
REMARK  172  A    between atoms: _441  and  _442
REMARK  173  A    between atoms: _447  and  _449
REMARK  174  A    between atoms: _449  and  _450
REMARK  175  A    between atoms: _449  and  _452
REMARK  176  A    between atoms: _452  and  _453
REMARK  177  A    between atoms: _453  and  _454
REMARK  178  A    between atoms: _454  and  _455
REMARK  179  A    between atoms: _464  and  _466
REMARK  180  A    between atoms: _466  and  _467
REMARK  181  A    between atoms: _470  and  _472
REMARK  182  A    between atoms: _472  and  _473
REMARK  183  A    between atoms: _475  and  _477
REMARK  184  A    between atoms: _477  and  _478
REMARK  185  A    between atoms: _477  and  _480
REMARK  186  A    between atoms: _480  and  _481
REMARK  187  A    between atoms: _491  and  _493
REMARK  188  A    between atoms: _493  and  _494
REMARK  189  A    between atoms: _493  and  _496
REMARK  190  A    between atoms: _496  and  _497
REMARK  191  A    between atoms: _498  and  _500
REMARK  192  A    between atoms: _500  and  _501
REMARK  193  A    between atoms: _504  and  _506
REMARK  194  A    between atoms: _506  and  _507
REMARK  195  A    between atoms: _506  and  _509
REMARK  196  A    between atoms: _509  and  _510
REMARK  197  A    between atoms: _513  and  _515
REMARK  198  A    between atoms: _515  and  _516
REMARK  199  A    between atoms: _515  and  _518
REMARK  200  A    between atoms: _518  and  _519
REMARK  201  A    between atoms: _524  and  _525
REMARK  202  A    between atoms: _527  and  _529
REMARK  203  A    between atoms: _529  and  _530
REMARK  204  A    between atoms: _529  and  _532
REMARK  205  A    between atoms: _532  and  _533
REMARK  206  A    between atoms: _535  and  _537
REMARK  207  A    between atoms: _537  and  _538
REMARK  208  A    between atoms: _537  and  _540
REMARK  209  A    between atoms: _540  and  _541
REMARK  210  A    between atoms: _547  and  _549
REMARK  211  A    between atoms: _549  and  _550
REMARK  212  A    between atoms: _549  and  _552
REMARK  213  A    between atoms: _552  and  _553
REMARK  214  A    between atoms: _556  and  _558
REMARK  215  A    between atoms: _558  and  _559
REMARK  216  A    between atoms: _558  and  _561
REMARK  217  A    between atoms: _561  and  _562
REMARK  218  A    between atoms: _562  and  _563
REMARK  219  A    between atoms: _565  and  _567
REMARK  220  A    between atoms: _567  and  _568
REMARK  221  A    between atoms: _567  and  _570
REMARK  222  A    between atoms: _570  and  _571
REMARK  223  A    between atoms: _573  and  _575
REMARK  224  A    between atoms: _575  and  _576
REMARK  225  A    between atoms: _575  and  _578
REMARK  226  A    between atoms: _578  and  _579
REMARK  227  A    between atoms: _581  and  _583
REMARK  228  A    between atoms: _583  and  _584
REMARK  229  A    between atoms: _583  and  _586
REMARK  230  A    between atoms: _586  and  _587
REMARK  231  A    between atoms: _592  and  _594
REMARK  232  A    between atoms: _594  and  _595
REMARK  233  A    between atoms: _594  and  _597
REMARK  234  A    between atoms: _597  and  _598
REMARK  235  A    between atoms: _603  and  _605
REMARK  236  A    between atoms: _605  and  _606
REMARK  237  A    between atoms: _605  and  _608
REMARK  238  A    between atoms: _608  and  _609
REMARK  239  A    between atoms: _612  and  _614
REMARK  240  A    between atoms: _614  and  _615
REMARK  241  A    between atoms: _618  and  _620
REMARK  242  A    between atoms: _620  and  _621
REMARK  243  A    between atoms: _620  and  _623
REMARK  244  A    between atoms: _623  and  _624
REMARK  245  A    between atoms: _629  and  _631
REMARK  246  A    between atoms: _631  and  _632
REMARK  247  A    between atoms: _631  and  _634
REMARK  248  A    between atoms: _634  and  _635
REMARK  249  A    between atoms: _640  and  _641
REMARK  250  A    between atoms: _643  and  _645
REMARK  251  A    between atoms: _645  and  _646
REMARK  252  A    between atoms: _645  and  _648
REMARK  253  A    between atoms: _648  and  _649
REMARK  254  A    between atoms: _654  and  _655
REMARK  255  A    between atoms: _657  and  _659
REMARK  256  A    between atoms: _659  and  _660
REMARK  257  A    between atoms: _659  and  _662
REMARK  258  A    between atoms: _665  and  _667
REMARK  259  A    between atoms: _667  and  _668
REMARK  260  A    between atoms: _667  and  _670
REMARK  261  A    between atoms: _670  and  _671
REMARK  262  A    between atoms: _676  and  _678
REMARK  263  A    between atoms: _678  and  _679
REMARK  264  A    between atoms: _682  and  _684
REMARK  265  A    between atoms: _684  and  _685
REMARK  266  A    between atoms: _684  and  _687
REMARK  267  A    between atoms: _687  and  _688
REMARK  268  A    between atoms: _688  and  _689
REMARK  269  A    between atoms: _689  and  _690
REMARK  270  A    between atoms: _699  and  _701
REMARK  271  A    between atoms: _701  and  _702
REMARK  272  A    between atoms: _701  and  _704
REMARK  273  A    between atoms: _704  and  _705
REMARK  274  A    between atoms: _708  and  _710
REMARK  275  A    between atoms: _710  and  _711
REMARK  276  A    between atoms: _710  and  _713
REMARK  277  A    between atoms: _713  and  _714
REMARK  278  A    between atoms: _717  and  _719
REMARK  279  A    between atoms: _719  and  _720
REMARK  280  A    between atoms: _719  and  _722
REMARK  281  A    between atoms: _722  and  _723
REMARK                            x       y       z     vdW  Elec       q    Type
REMARK                         _______ _______ _______ _____ _____    ______ ____
ROOT
ATOM      1  CA  ASP A   2       0.717  10.803   7.796  0.00  0.00    +0.160 C 
ENDROOT
BRANCH   1   4
ATOM      2  C   LEU A   1       2.161  10.475   9.743  0.00  0.00    +0.238 C 
ATOM      3  O   LEU A   1       2.406  11.677   9.821  0.00  0.00    -0.274 OA
ATOM      4  N   ASP A   2       1.366   9.954   8.808  0.00  0.00    -0.297 N 
ATOM      5  H   ASP A   2       1.201   8.927   8.793  0.00  0.00    +0.150 HD
BRANCH   2   6
ATOM      6  CA  LEU A   1       2.838   9.529  10.746  0.00  0.00    +0.145 C 
BRANCH   6   7
ATOM      7  N   LEU A   1       2.191   8.236  10.694  0.00  0.00    -0.238 NA
ATOM      8  H   LEU A   1       2.484   7.565   9.955  0.00  0.00    +0.142 HD
ENDBRANCH   6   7
BRANCH   6   9
ATOM      9  CB  LEU A   1       4.333   9.499  10.432  0.00  0.00    +0.026 C 
BRANCH   9  10
ATOM     10  CG  LEU A   1       5.215   8.523  11.211  0.00  0.00    +0.002 C 
ATOM     11  CD2 LEU A   1       4.812   8.348  12.654  0.00  0.00    +0.000 C 
ATOM     12  CD1 LEU A   1       6.681   8.956  11.153  0.00  0.00    +0.000 C 
ENDBRANCH   9  10
ENDBRANCH   6   9
ENDBRANCH   2   6
ENDBRANCH   1   4
BRANCH   1  13
ATOM     13  C   ASP A   2       1.678  11.688   7.010  0.00  0.00    +0.241 C 
ATOM     14  O   ASP A   2       1.477  12.885   6.731  0.00  0.00    -0.273 OA
ATOM     15  N   ASN A   3       2.736  11.064   6.520  0.00  0.00    -0.298 N 
ATOM     16  H   ASN A   3       2.849  10.050   6.720  0.00  0.00    +0.150 HD
BRANCH  15  17
ATOM     17  CA  ASN A   3       3.762  11.734   5.705  0.00  0.00    +0.146 C 
BRANCH  17  18
ATOM     18  C   ASN A   3       3.311  11.708   4.236  0.00  0.00    +0.227 C 
ATOM     19  O   ASN A   3       3.900  11.010   3.435  0.00  0.00    -0.286 OA
ENDBRANCH  17  18
BRANCH  17  20
ATOM     20  CB  ASN A   3       5.074  10.961   5.879  0.00  0.00    +0.112 C 
BRANCH  20  21
ATOM     21  CG  ASN A   3       5.861  11.430   7.095  0.00  0.00    +0.222 C 
ATOM     22  ND2 ASN A   3       6.590  10.519   7.724  0.00  0.00    -0.329 N 
ATOM     23 HD21 ASN A   3       7.136  10.783   8.569  0.00  0.00    +0.145 HD
ATOM     24 HD22 ASN A   3       6.616   9.541   7.372  0.00  0.00    +0.145 HD
ATOM     25  OD1 ASN A   3       5.792  12.595   7.462  0.00  0.00    -0.275 OA
ENDBRANCH  20  21
ENDBRANCH  17  20
ENDBRANCH  15  17
ENDBRANCH   1  13
BRANCH   1  26
ATOM     26  CB  ASP A   2      -0.390  11.682   8.376  0.00  0.00    +0.143 C 
BRANCH  26  27
ATOM     27  CG  ASP A   2      -1.478  11.973   7.364  0.00  0.00    +0.367 C 
ATOM     28  OD2 ASP A   2      -2.160  12.991   7.480  0.00  0.00    -0.246 OA
ATOM     29  OD1 ASP A   2      -1.705  11.194   6.414  0.00  0.00    -0.246 OA
ENDBRANCH  26  27
ENDBRANCH   1  26
TORSDOF 12
REMARK  Name = ../refined-set-2016/1qka/1qka_pocket.pdb
REMARK  281 active torsions:
REMARK  status: ('A' for Active; 'I' for Inactive)
REMARK    1  A    between atoms: _1  and  _3
REMARK    2  A    between atoms: _3  and  _4
REMARK    3  A    between atoms: _3  and  _6
REMARK    4  A    between atoms: _6  and  _7
REMARK    5  A    between atoms: _12  and  _14
REMARK    6  A    between atoms: _14  and  _15
REMARK    7  A    between atoms: _17  and  _19
REMARK    8  A    between atoms: _19  and  _20
REMARK    9  A    between atoms: _19  and  _22
REMARK   10  A    between atoms: _22  and  _23
REMARK   11  A    between atoms: _25  and  _27
REMARK   12  A    between atoms: _27  and  _28
REMARK   13  A    between atoms: _27  and  _30
REMARK   14  A    between atoms: _30  and  _31
REMARK   15  A    between atoms: _31  and  _32
REMARK   16  A    between atoms: _37  and  _39
REMARK   17  A    between atoms: _39  and  _40
REMARK   18  A    between atoms: _39  and  _42
REMARK   19  A    between atoms: _42  and  _43
REMARK   20  A    between atoms: _46  and  _48
REMARK   21  A    between atoms: _48  and  _49
REMARK   22  A    between atoms: _48  and  _51
REMARK   23  A    between atoms: _51  and  _52
REMARK   24  A    between atoms: _52  and  _53
REMARK   25  A    between atoms: _56  and  _58
REMARK   26  A    between atoms: _58  and  _59
REMARK   27  A    between atoms: _61  and  _63
REMARK   28  A    between atoms: _63  and  _64
REMARK   29  A    between atoms: _63  and  _66
REMARK   30  A    between atoms: _70  and  _71
REMARK   31  A    between atoms: _76  and  _78
REMARK   32  A    between atoms: _78  and  _79
REMARK   33  A    between atoms: _78  and  _81
REMARK   34  A    between atoms: _81  and  _82
REMARK   35  A    between atoms: _82  and  _83
REMARK   36  A    between atoms: _86  and  _88
REMARK   37  A    between atoms: _88  and  _89
REMARK   38  A    between atoms: _88  and  _91
REMARK   39  A    between atoms: _91  and  _92
REMARK   40  A    between atoms: _94  and  _96
REMARK   41  A    between atoms: _96  and  _97
REMARK   42  A    between atoms: _96  and  _99
REMARK   43  A    between atoms: _99  and  _100
REMARK   44  A    between atoms: _105  and  _107
REMARK   45  A    between atoms: _107  and  _108
REMARK   46  A    between atoms: _107  and  _110
REMARK   47  A    between atoms: _110  and  _111
REMARK   48  A    between atoms: _111  and  _112
REMARK   49  A    between atoms: _112  and  _113
REMARK   50  A    between atoms: _123  and  _124
REMARK   51  A    between atoms: _129  and  _131
REMARK   52  A    between atoms: _131  and  _132
REMARK   53  A    between atoms: _131  and  _134
REMARK   54  A    between atoms: _134  and  _135
REMARK   55  A    between atoms: _140  and  _141
REMARK   56  A    between atoms: _143  and  _145
REMARK   57  A    between atoms: _145  and  _146
REMARK   58  A    between atoms: _145  and  _148
REMARK   59  A    between atoms: _148  and  _149
REMARK   60  A    between atoms: _154  and  _155
REMARK   61  A    between atoms: _157  and  _159
REMARK   62  A    between atoms: _159  and  _160
REMARK   63  A    between atoms: _159  and  _162
REMARK   64  A    between atoms: _162  and  _163
REMARK   65  A    between atoms: _168  and  _169
REMARK   66  A    between atoms: _171  and  _173
REMARK   67  A    between atoms: _173  and  _174
REMARK   68  A    between atoms: _173  and  _176
REMARK   69  A    between atoms: _179  and  _181
REMARK   70  A    between atoms: _181  and  _182
REMARK   71  A    between atoms: _181  and  _184
REMARK   72  A    between atoms: _184  and  _185
REMARK   73  A    between atoms: _191  and  _192
REMARK   74  A    between atoms: _197  and  _199
REMARK   75  A    between atoms: _199  and  _200
REMARK   76  A    between atoms: _199  and  _202
REMARK   77  A    between atoms: _202  and  _203
REMARK   78  A    between atoms: _205  and  _207
REMARK   79  A    between atoms: _207  and  _208
REMARK   80  A    between atoms: _207  and  _210
REMARK   81  A    between atoms: _210  and  _211
REMARK   82  A    between atoms: _211  and  _212
REMARK   83  A    between atoms: _215  and  _217
REMARK   84  A    between atoms: _217  and  _218
REMARK   85  A    between atoms: _217  and  _220
REMARK   86  A    between atoms: _220  and  _221
REMARK   87  A    between atoms: _226  and  _227
REMARK   88  A    between atoms: _229  and  _231
REMARK   89  A    between atoms: _231  and  _232
REMARK   90  A    between atoms: _231  and  _234
REMARK   91  A    between atoms: _234  and  _235
REMARK   92  A    between atoms: _240  and  _242
REMARK   93  A    between atoms: _242  and  _243
REMARK   94  A    between atoms: _242  and  _245
REMARK   95  A    between atoms: _245  and  _246
REMARK   96  A    between atoms: _251  and  _253
REMARK   97  A    between atoms: _253  and  _254
REMARK   98  A    between atoms: _253  and  _256
REMARK   99  A    between atoms: _256  and  _257
REMARK  100  A    between atoms: _257  and  _258
REMARK  101  A    between atoms: _260  and  _262
REMARK  102  A    between atoms: _262  and  _263
REMARK  103  A    between atoms: _262  and  _265
REMARK  104  A    between atoms: _265  and  _266
REMARK  105  A    between atoms: _271  and  _272
REMARK  106  A    between atoms: _274  and  _276
REMARK  107  A    between atoms: _276  and  _277
REMARK  108  A    between atoms: _276  and  _279
REMARK  109  A    between atoms: _279  and  _280
REMARK  110  A    between atoms: _283  and  _285
REMARK  111  A    between atoms: _285  and  _286
REMARK  112  A    between atoms: _285  and  _288
REMARK  113  A    between atoms: _288  and  _289
REMARK  114  A    between atoms: _289  and  _497
REMARK  115  A    between atoms: _290  and  _292
REMARK  116  A    between atoms: _292  and  _293
REMARK  117  A    between atoms: _292  and  _295
REMARK  118  A    between atoms: _295  and  _296
REMARK  119  A    between atoms: _299  and  _301
REMARK  120  A    between atoms: _301  and  _302
REMARK  121  A    between atoms: _301  and  _304
REMARK  122  A    between atoms: _304  and  _305
REMARK  123  A    between atoms: _310  and  _311
REMARK  124  A    between atoms: _313  and  _315
REMARK  125  A    between atoms: _315  and  _316
REMARK  126  A    between atoms: _315  and  _318
REMARK  127  A    between atoms: _318  and  _319
REMARK  128  A    between atoms: _324  and  _325
REMARK  129  A    between atoms: _327  and  _329
REMARK  130  A    between atoms: _329  and  _330
REMARK  131  A    between atoms: _329  and  _332
REMARK  132  A    between atoms: _332  and  _333
REMARK  133  A    between atoms: _333  and  _334
REMARK  134  A    between atoms: _337  and  _339
REMARK  135  A    between atoms: _339  and  _340
REMARK  136  A    between atoms: _339  and  _342
REMARK  137  A    between atoms: _342  and  _343
REMARK  138  A    between atoms: _348  and  _349
REMARK  139  A    between atoms: _351  and  _353
REMARK  140  A    between atoms: _353  and  _354
REMARK  141  A    between atoms: _353  and  _356
REMARK  142  A    between atoms: _356  and  _357
REMARK  143  A    between atoms: _362  and  _364
REMARK  144  A    between atoms: _364  and  _365
REMARK  145  A    between atoms: _364  and  _367
REMARK  146  A    between atoms: _367  and  _368
REMARK  147  A    between atoms: _371  and  _373
REMARK  148  A    between atoms: _373  and  _374
REMARK  149  A    between atoms: _373  and  _376
REMARK  150  A    between atoms: _376  and  _377
REMARK  151  A    between atoms: _382  and  _384
REMARK  152  A    between atoms: _384  and  _385
REMARK  153  A    between atoms: _384  and  _387
REMARK  154  A    between atoms: _387  and  _388
REMARK  155  A    between atoms: _398  and  _400
REMARK  156  A    between atoms: _400  and  _401
REMARK  157  A    between atoms: _400  and  _403
REMARK  158  A    between atoms: _403  and  _404
REMARK  159  A    between atoms: _410  and  _412
REMARK  160  A    between atoms: _412  and  _413
REMARK  161  A    between atoms: _412  and  _415
REMARK  162  A    between atoms: _415  and  _416
REMARK  163  A    between atoms: _419  and  _421
REMARK  164  A    between atoms: _421  and  _422
REMARK  165  A    between atoms: _421  and  _424
REMARK  166  A    between atoms: _424  and  _425
REMARK  167  A    between atoms: _425  and  _426
REMARK  168  A    between atoms: _426  and  _427
REMARK  169  A    between atoms: _436  and  _438
REMARK  170  A    between atoms: _438  and  _439
REMARK  171  A    between atoms: _438  and  _441
REMARK  172  A    between atoms: _441  and  _442
REMARK  173  A    between atoms: _447  and  _449
REMARK  174  A    between atoms: _449  and  _450
REMARK  175  A    between atoms: _449  and  _452
REMARK  176  A    between atoms: _452  and  _453
REMARK  177  A    between atoms: _453  and  _454
REMARK  178  A    between atoms: _454  and  _455
REMARK  179  A    between atoms: _464  and  _466
REMARK  180  A    between atoms: _466  and  _467
REMARK  181  A    between atoms: _470  and  _472
REMARK  182  A    between atoms: _472  and  _473
REMARK  183  A    between atoms: _475  and  _477
REMARK  184  A    between atoms: _477  and  _478
REMARK  185  A    between atoms: _477  and  _480
REMARK  186  A    between atoms: _480  and  _481
REMARK  187  A    between atoms: _491  and  _493
REMARK  188  A    between atoms: _493  and  _494
REMARK  189  A    between atoms: _493  and  _496
REMARK  190  A    between atoms: _496  and  _497
REMARK  191  A    between atoms: _498  and  _500
REMARK  192  A    between atoms: _500  and  _501
REMARK  193  A    between atoms: _504  and  _506
REMARK  194  A    between atoms: _506  and  _507
REMARK  195  A    between atoms: _506  and  _509
REMARK  196  A    between atoms: _509  and  _510
REMARK  197  A    between atoms: _513  and  _515
REMARK  198  A    between atoms: _515  and  _516
REMARK  199  A    between atoms: _515  and  _518
REMARK  200  A    between atoms: _518  and  _519
REMARK  201  A    between atoms: _524  and  _525
REMARK  202  A    between atoms: _527  and  _529
REMARK  203  A    between atoms: _529  and  _530
REMARK  204  A    between atoms: _529  and  _532
REMARK  205  A    between atoms: _532  and  _533
REMARK  206  A    between atoms: _535  and  _537
REMARK  207  A    between atoms: _537  and  _538
REMARK  208  A    between atoms: _537  and  _540
REMARK  209  A    between atoms: _540  and  _541
REMARK  210  A    between atoms: _547  and  _549
REMARK  211  A    between atoms: _549  and  _550
REMARK  212  A    between atoms: _549  and  _552
REMARK  213  A    between atoms: _552  and  _553
REMARK  214  A    between atoms: _556  and  _558
REMARK  215  A    between atoms: _558  and  _559
REMARK  216  A    between atoms: _558  and  _561
REMARK  217  A    between atoms: _561  and  _562
REMARK  218  A    between atoms: _562  and  _563
REMARK  219  A    between atoms: _565  and  _567
REMARK  220  A    between atoms: _567  and  _568
REMARK  221  A    between atoms: _567  and  _570
REMARK  222  A    between atoms: _570  and  _571
REMARK  223  A    between atoms: _573  and  _575
REMARK  224  A    between atoms: _575  and  _576
REMARK  225  A    between atoms: _575  and  _578
REMARK  226  A    between atoms: _578  and  _579
REMARK  227  A    between atoms: _581  and  _583
REMARK  228  A    between atoms: _583  and  _584
REMARK  229  A    between atoms: _583  and  _586
REMARK  230  A    between atoms: _586  and  _587
REMARK  231  A    between atoms: _592  and  _594
REMARK  232  A    between atoms: _594  and  _595
REMARK  233  A    between atoms: _594  and  _597
REMARK  234  A    between atoms: _597  and  _598
REMARK  235  A    between atoms: _603  and  _605
REMARK  236  A    between atoms: _605  and  _606
REMARK  237  A    between atoms: _605  and  _608
REMARK  238  A    between atoms: _608  and  _609
REMARK  239  A    between atoms: _612  and  _614
REMARK  240  A    between atoms: _614  and  _615
REMARK  241  A    between atoms: _618  and  _620
REMARK  242  A    between atoms: _620  and  _621
REMARK  243  A    between atoms: _620  and  _623
REMARK  244  A    between atoms: _623  and  _624
REMARK  245  A    between atoms: _629  and  _631
REMARK  246  A    between atoms: _631  and  _632
REMARK  247  A    between atoms: _631  and  _634
REMARK  248  A    between atoms: _634  and  _635
REMARK  249  A    between atoms: _640  and  _641
REMARK  250  A    between atoms: _643  and  _645
REMARK  251  A    between atoms: _645  and  _646
REMARK  252  A    between atoms: _645  and  _648
REMARK  253  A    between atoms: _648  and  _649
REMARK  254  A    between atoms: _654  and  _655
REMARK  255  A    between atoms: _657  and  _659
REMARK  256  A    between atoms: _659  and  _660
REMARK  257  A    between atoms: _659  and  _662
REMARK  258  A    between atoms: _665  and  _667
REMARK  259  A    between atoms: _667  and  _668
REMARK  260  A    between atoms: _667  and  _670
REMARK  261  A    between atoms: _670  and  _671
REMARK  262  A    between atoms: _676  and  _678
REMARK  263  A    between atoms: _678  and  _679
REMARK  264  A    between atoms: _682  and  _684
REMARK  265  A    between atoms: _684  and  _685
REMARK  266  A    between atoms: _684  and  _687
REMARK  267  A    between atoms: _687  and  _688
REMARK  268  A    between atoms: _688  and  _689
REMARK  269  A    between atoms: _689  and  _690
REMARK  270  A    between atoms: _699  and  _701
REMARK  271  A    between atoms: _701  and  _702
REMARK  272  A    between atoms: _701  and  _704
REMARK  273  A    between atoms: _704  and  _705
REMARK  274  A    between atoms: _708  and  _710
REMARK  275  A    between atoms: _710  and  _711
REMARK  276  A    between atoms: _710  and  _713
REMARK  277  A    between atoms: _713  and  _714
REMARK  278  A    between atoms: _717  and  _719
REMARK  279  A    between atoms: _719  and  _720
REMARK  280  A    between atoms: _719  and  _722
REMARK  281  A    between atoms: _722  and  _723
REMARK                            x       y       z     vdW  Elec       q    Type
REMARK                         _______ _______ _______ _____ _____    ______ ____
ROOT
ATOM      1  O   HOH     1      11.132  28.310  16.423  0.00  0.00    +0.000 OA
ENDROOT
TORSDOF 0
REMARK  Name = ../refined-set-2016/1qka/1qka_pocket.pdb
REMARK  281 active torsions:
REMARK  status: ('A' for Active; 'I' for Inactive)
REMARK    1  A    between atoms: _1  and  _3
REMARK    2  A    between atoms: _3  and  _4
REMARK    3  A    between atoms: _3  and  _6
REMARK    4  A    between atoms: _6  and  _7
REMARK    5  A    between atoms: _12  and  _14
REMARK    6  A    between atoms: _14  and  _15
REMARK    7  A    between atoms: _17  and  _19
REMARK    8  A    between atoms: _19  and  _20
REMARK    9  A    between atoms: _19  and  _22
REMARK   10  A    between atoms: _22  and  _23
REMARK   11  A    between atoms: _25  and  _27
REMARK   12  A    between atoms: _27  and  _28
REMARK   13  A    between atoms: _27  and  _30
REMARK   14  A    between atoms: _30  and  _31
REMARK   15  A    between atoms: _31  and  _32
REMARK   16  A    between atoms: _37  and  _39
REMARK   17  A    between atoms: _39  and  _40
REMARK   18  A    between atoms: _39  and  _42
REMARK   19  A    between atoms: _42  and  _43
REMARK   20  A    between atoms: _46  and  _48
REMARK   21  A    between atoms: _48  and  _49
REMARK   22  A    between atoms: _48  and  _51
REMARK   23  A    between atoms: _51  and  _52
REMARK   24  A    between atoms: _52  and  _53
REMARK   25  A    between atoms: _56  and  _58
REMARK   26  A    between atoms: _58  and  _59
REMARK   27  A    between atoms: _61  and  _63
REMARK   28  A    between atoms: _63  and  _64
REMARK   29  A    between atoms: _63  and  _66
REMARK   30  A    between atoms: _70  and  _71
REMARK   31  A    between atoms: _76  and  _78
REMARK   32  A    between atoms: _78  and  _79
REMARK   33  A    between atoms: _78  and  _81
REMARK   34  A    between atoms: _81  and  _82
REMARK   35  A    between atoms: _82  and  _83
REMARK   36  A    between atoms: _86  and  _88
REMARK   37  A    between atoms: _88  and  _89
REMARK   38  A    between atoms: _88  and  _91
REMARK   39  A    between atoms: _91  and  _92
REMARK   40  A    between atoms: _94  and  _96
REMARK   41  A    between atoms: _96  and  _97
REMARK   42  A    between atoms: _96  and  _99
REMARK   43  A    between atoms: _99  and  _100
REMARK   44  A    between atoms: _105  and  _107
REMARK   45  A    between atoms: _107  and  _108
REMARK   46  A    between atoms: _107  and  _110
REMARK   47  A    between atoms: _110  and  _111
REMARK   48  A    between atoms: _111  and  _112
REMARK   49  A    between atoms: _112  and  _113
REMARK   50  A    between atoms: _123  and  _124
REMARK   51  A    between atoms: _129  and  _131
REMARK   52  A    between atoms: _131  and  _132
REMARK   53  A    between atoms: _131  and  _134
REMARK   54  A    between atoms: _134  and  _135
REMARK   55  A    between atoms: _140  and  _141
REMARK   56  A    between atoms: _143  and  _145
REMARK   57  A    between atoms: _145  and  _146
REMARK   58  A    between atoms: _145  and  _148
REMARK   59  A    between atoms: _148  and  _149
REMARK   60  A    between atoms: _154  and  _155
REMARK   61  A    between atoms: _157  and  _159
REMARK   62  A    between atoms: _159  and  _160
REMARK   63  A    between atoms: _159  and  _162
REMARK   64  A    between atoms: _162  and  _163
REMARK   65  A    between atoms: _168  and  _169
REMARK   66  A    between atoms: _171  and  _173
REMARK   67  A    between atoms: _173  and  _174
REMARK   68  A    between atoms: _173  and  _176
REMARK   69  A    between atoms: _179  and  _181
REMARK   70  A    between atoms: _181  and  _182
REMARK   71  A    between atoms: _181  and  _184
REMARK   72  A    between atoms: _184  and  _185
REMARK   73  A    between atoms: _191  and  _192
REMARK   74  A    between atoms: _197  and  _199
REMARK   75  A    between atoms: _199  and  _200
REMARK   76  A    between atoms: _199  and  _202
REMARK   77  A    between atoms: _202  and  _203
REMARK   78  A    between atoms: _205  and  _207
REMARK   79  A    between atoms: _207  and  _208
REMARK   80  A    between atoms: _207  and  _210
REMARK   81  A    between atoms: _210  and  _211
REMARK   82  A    between atoms: _211  and  _212
REMARK   83  A    between atoms: _215  and  _217
REMARK   84  A    between atoms: _217  and  _218
REMARK   85  A    between atoms: _217  and  _220
REMARK   86  A    between atoms: _220  and  _221
REMARK   87  A    between atoms: _226  and  _227
REMARK   88  A    between atoms: _229  and  _231
REMARK   89  A    between atoms: _231  and  _232
REMARK   90  A    between atoms: _231  and  _234
REMARK   91  A    between atoms: _234  and  _235
REMARK   92  A    between atoms: _240  and  _242
REMARK   93  A    between atoms: _242  and  _243
REMARK   94  A    between atoms: _242  and  _245
REMARK   95  A    between atoms: _245  and  _246
REMARK   96  A    between atoms: _251  and  _253
REMARK   97  A    between atoms: _253  and  _254
REMARK   98  A    between atoms: _253  and  _256
REMARK   99  A    between atoms: _256  and  _257
REMARK  100  A    between atoms: _257  and  _258
REMARK  101  A    between atoms: _260  and  _262
REMARK  102  A    between atoms: _262  and  _263
REMARK  103  A    between atoms: _262  and  _265
REMARK  104  A    between atoms: _265  and  _266
REMARK  105  A    between atoms: _271  and  _272
REMARK  106  A    between atoms: _274  and  _276
REMARK  107  A    between atoms: _276  and  _277
REMARK  108  A    between atoms: _276  and  _279
REMARK  109  A    between atoms: _279  and  _280
REMARK  110  A    between atoms: _283  and  _285
REMARK  111  A    between atoms: _285  and  _286
REMARK  112  A    between atoms: _285  and  _288
REMARK  113  A    between atoms: _288  and  _289
REMARK  114  A    between atoms: _289  and  _497
REMARK  115  A    between atoms: _290  and  _292
REMARK  116  A    between atoms: _292  and  _293
REMARK  117  A    between atoms: _292  and  _295
REMARK  118  A    between atoms: _295  and  _296
REMARK  119  A    between atoms: _299  and  _301
REMARK  120  A    between atoms: _301  and  _302
REMARK  121  A    between atoms: _301  and  _304
REMARK  122  A    between atoms: _304  and  _305
REMARK  123  A    between atoms: _310  and  _311
REMARK  124  A    between atoms: _313  and  _315
REMARK  125  A    between atoms: _315  and  _316
REMARK  126  A    between atoms: _315  and  _318
REMARK  127  A    between atoms: _318  and  _319
REMARK  128  A    between atoms: _324  and  _325
REMARK  129  A    between atoms: _327  and  _329
REMARK  130  A    between atoms: _329  and  _330
REMARK  131  A    between atoms: _329  and  _332
REMARK  132  A    between atoms: _332  and  _333
REMARK  133  A    between atoms: _333  and  _334
REMARK  134  A    between atoms: _337  and  _339
REMARK  135  A    between atoms: _339  and  _340
REMARK  136  A    between atoms: _339  and  _342
REMARK  137  A    between atoms: _342  and  _343
REMARK  138  A    between atoms: _348  and  _349
REMARK  139  A    between atoms: _351  and  _353
REMARK  140  A    between atoms: _353  and  _354
REMARK  141  A    between atoms: _353  and  _356
REMARK  142  A    between atoms: _356  and  _357
REMARK  143  A    between atoms: _362  and  _364
REMARK  144  A    between atoms: _364  and  _365
REMARK  145  A    between atoms: _364  and  _367
REMARK  146  A    between atoms: _367  and  _368
REMARK  147  A    between atoms: _371  and  _373
REMARK  148  A    between atoms: _373  and  _374
REMARK  149  A    between atoms: _373  and  _376
REMARK  150  A    between atoms: _376  and  _377
REMARK  151  A    between atoms: _382  and  _384
REMARK  152  A    between atoms: _384  and  _385
REMARK  153  A    between atoms: _384  and  _387
REMARK  154  A    between atoms: _387  and  _388
REMARK  155  A    between atoms: _398  and  _400
REMARK  156  A    between atoms: _400  and  _401
REMARK  157  A    between atoms: _400  and  _403
REMARK  158  A    between atoms: _403  and  _404
REMARK  159  A    between atoms: _410  and  _412
REMARK  160  A    between atoms: _412  and  _413
REMARK  161  A    between atoms: _412  and  _415
REMARK  162  A    between atoms: _415  and  _416
REMARK  163  A    between atoms: _419  and  _421
REMARK  164  A    between atoms: _421  and  _422
REMARK  165  A    between atoms: _421  and  _424
REMARK  166  A    between atoms: _424  and  _425
REMARK  167  A    between atoms: _425  and  _426
REMARK  168  A    between atoms: _426  and  _427
REMARK  169  A    between atoms: _436  and  _438
REMARK  170  A    between atoms: _438  and  _439
REMARK  171  A    between atoms: _438  and  _441
REMARK  172  A    between atoms: _441  and  _442
REMARK  173  A    between atoms: _447  and  _449
REMARK  174  A    between atoms: _449  and  _450
REMARK  175  A    between atoms: _449  and  _452
REMARK  176  A    between atoms: _452  and  _453
REMARK  177  A    between atoms: _453  and  _454
REMARK  178  A    between atoms: _454  and  _455
REMARK  179  A    between atoms: _464  and  _466
REMARK  180  A    between atoms: _466  and  _467
REMARK  181  A    between atoms: _470  and  _472
REMARK  182  A    between atoms: _472  and  _473
REMARK  183  A    between atoms: _475  and  _477
REMARK  184  A    between atoms: _477  and  _478
REMARK  185  A    between atoms: _477  and  _480
REMARK  186  A    between atoms: _480  and  _481
REMARK  187  A    between atoms: _491  and  _493
REMARK  188  A    between atoms: _493  and  _494
REMARK  189  A    between atoms: _493  and  _496
REMARK  190  A    between atoms: _496  and  _497
REMARK  191  A    between atoms: _498  and  _500
REMARK  192  A    between atoms: _500  and  _501
REMARK  193  A    between atoms: _504  and  _506
REMARK  194  A    between atoms: _506  and  _507
REMARK  195  A    between atoms: _506  and  _509
REMARK  196  A    between atoms: _509  and  _510
REMARK  197  A    between atoms: _513  and  _515
REMARK  198  A    between atoms: _515  and  _516
REMARK  199  A    between atoms: _515  and  _518
REMARK  200  A    between atoms: _518  and  _519
REMARK  201  A    between atoms: _524  and  _525
REMARK  202  A    between atoms: _527  and  _529
REMARK  203  A    between atoms: _529  and  _530
REMARK  204  A    between atoms: _529  and  _532
REMARK  205  A    between atoms: _532  and  _533
REMARK  206  A    between atoms: _535  and  _537
REMARK  207  A    between atoms: _537  and  _538
REMARK  208  A    between atoms: _537  and  _540
REMARK  209  A    between atoms: _540  and  _541
REMARK  210  A    between atoms: _547  and  _549
REMARK  211  A    between atoms: _549  and  _550
REMARK  212  A    between atoms: _549  and  _552
REMARK  213  A    between atoms: _552  and  _553
REMARK  214  A    between atoms: _556  and  _558
REMARK  215  A    between atoms: _558  and  _559
REMARK  216  A    between atoms: _558  and  _561
REMARK  217  A    between atoms: _561  and  _562
REMARK  218  A    between atoms: _562  and  _563
REMARK  219  A    between atoms: _565  and  _567
REMARK  220  A    between atoms: _567  and  _568
REMARK  221  A    between atoms: _567  and  _570
REMARK  222  A    between atoms: _570  and  _571
REMARK  223  A    between atoms: _573  and  _575
REMARK  224  A    between atoms: _575  and  _576
REMARK  225  A    between atoms: _575  and  _578
REMARK  226  A    between atoms: _578  and  _579
REMARK  227  A    between atoms: _581  and  _583
REMARK  228  A    between atoms: _583  and  _584
REMARK  229  A    between atoms: _583  and  _586
REMARK  230  A    between atoms: _586  and  _587
REMARK  231  A    between atoms: _592  and  _594
REMARK  232  A    between atoms: _594  and  _595
REMARK  233  A    between atoms: _594  and  _597
REMARK  234  A    between atoms: _597  and  _598
REMARK  235  A    between atoms: _603  and  _605
REMARK  236  A    between atoms: _605  and  _606
REMARK  237  A    between atoms: _605  and  _608
REMARK  238  A    between atoms: _608  and  _609
REMARK  239  A    between atoms: _612  and  _614
REMARK  240  A    between atoms: _614  and  _615
REMARK  241  A    between atoms: _618  and  _620
REMARK  242  A    between atoms: _620  and  _621
REMARK  243  A    between atoms: _620  and  _623
REMARK  244  A    between atoms: _623  and  _624
REMARK  245  A    between atoms: _629  and  _631
REMARK  246  A    between atoms: _631  and  _632
REMARK  247  A    between atoms: _631  and  _634
REMARK  248  A    between atoms: _634  and  _635
REMARK  249  A    between atoms: _640  and  _641
REMARK  250  A    between atoms: _643  and  _645
REMARK  251  A    between atoms: _645  and  _646
REMARK  252  A    between atoms: _645  and  _648
REMARK  253  A    between atoms: _648  and  _649
REMARK  254  A    between atoms: _654  and  _655
REMARK  255  A    between atoms: _657  and  _659
REMARK  256  A    between atoms: _659  and  _660
REMARK  257  A    between atoms: _659  and  _662
REMARK  258  A    between atoms: _665  and  _667
REMARK  259  A    between atoms: _667  and  _668
REMARK  260  A    between atoms: _667  and  _670
REMARK  261  A    between atoms: _670  and  _671
REMARK  262  A    between atoms: _676  and  _678
REMARK  263  A    between atoms: _678  and  _679
REMARK  264  A    between atoms: _682  and  _684
REMARK  265  A    between atoms: _684  and  _685
REMARK  266  A    between atoms: _684  and  _687
REMARK  267  A    between atoms: _687  and  _688
REMARK  268  A    between atoms: _688  and  _689
REMARK  269  A    between atoms: _689  and  _690
REMARK  270  A    between atoms: _699  and  _701
REMARK  271  A    between atoms: _701  and  _702
REMARK  272  A    between atoms: _701  and  _704
REMARK  273  A    between atoms: _704  and  _705
REMARK  274  A    between atoms: _708  and  _710
REMARK  275  A    between atoms: _710  and  _711
REMARK  276  A    between atoms: _710  and  _713
REMARK  277  A    between atoms: _713  and  _714
REMARK  278  A    between atoms: _717  and  _719
REMARK  279  A    between atoms: _719  and  _720
REMARK  280  A    between atoms: _719  and  _722
REMARK  281  A    between atoms: _722  and  _723
REMARK                            x       y       z     vdW  Elec       q    Type
REMARK                         _______ _______ _______ _____ _____    ______ ____
ROOT
ATOM      1  O   HOH     1      -5.111  25.560  12.364  0.00  0.00    +0.000 OA
ENDROOT
TORSDOF 0
REMARK  Name = ../refined-set-2016/1qka/1qka_pocket.pdb
REMARK  281 active torsions:
REMARK  status: ('A' for Active; 'I' for Inactive)
REMARK    1  A    between atoms: _1  and  _3
REMARK    2  A    between atoms: _3  and  _4
REMARK    3  A    between atoms: _3  and  _6
REMARK    4  A    between atoms: _6  and  _7
REMARK    5  A    between atoms: _12  and  _14
REMARK    6  A    between atoms: _14  and  _15
REMARK    7  A    between atoms: _17  and  _19
REMARK    8  A    between atoms: _19  and  _20
REMARK    9  A    between atoms: _19  and  _22
REMARK   10  A    between atoms: _22  and  _23
REMARK   11  A    between atoms: _25  and  _27
REMARK   12  A    between atoms: _27  and  _28
REMARK   13  A    between atoms: _27  and  _30
REMARK   14  A    between atoms: _30  and  _31
REMARK   15  A    between atoms: _31  and  _32
REMARK   16  A    between atoms: _37  and  _39
REMARK   17  A    between atoms: _39  and  _40
REMARK   18  A    between atoms: _39  and  _42
REMARK   19  A    between atoms: _42  and  _43
REMARK   20  A    between atoms: _46  and  _48
REMARK   21  A    between atoms: _48  and  _49
REMARK   22  A    between atoms: _48  and  _51
REMARK   23  A    between atoms: _51  and  _52
REMARK   24  A    between atoms: _52  and  _53
REMARK   25  A    between atoms: _56  and  _58
REMARK   26  A    between atoms: _58  and  _59
REMARK   27  A    between atoms: _61  and  _63
REMARK   28  A    between atoms: _63  and  _64
REMARK   29  A    between atoms: _63  and  _66
REMARK   30  A    between atoms: _70  and  _71
REMARK   31  A    between atoms: _76  and  _78
REMARK   32  A    between atoms: _78  and  _79
REMARK   33  A    between atoms: _78  and  _81
REMARK   34  A    between atoms: _81  and  _82
REMARK   35  A    between atoms: _82  and  _83
REMARK   36  A    between atoms: _86  and  _88
REMARK   37  A    between atoms: _88  and  _89
REMARK   38  A    between atoms: _88  and  _91
REMARK   39  A    between atoms: _91  and  _92
REMARK   40  A    between atoms: _94  and  _96
REMARK   41  A    between atoms: _96  and  _97
REMARK   42  A    between atoms: _96  and  _99
REMARK   43  A    between atoms: _99  and  _100
REMARK   44  A    between atoms: _105  and  _107
REMARK   45  A    between atoms: _107  and  _108
REMARK   46  A    between atoms: _107  and  _110
REMARK   47  A    between atoms: _110  and  _111
REMARK   48  A    between atoms: _111  and  _112
REMARK   49  A    between atoms: _112  and  _113
REMARK   50  A    between atoms: _123  and  _124
REMARK   51  A    between atoms: _129  and  _131
REMARK   52  A    between atoms: _131  and  _132
REMARK   53  A    between atoms: _131  and  _134
REMARK   54  A    between atoms: _134  and  _135
REMARK   55  A    between atoms: _140  and  _141
REMARK   56  A    between atoms: _143  and  _145
REMARK   57  A    between atoms: _145  and  _146
REMARK   58  A    between atoms: _145  and  _148
REMARK   59  A    between atoms: _148  and  _149
REMARK   60  A    between atoms: _154  and  _155
REMARK   61  A    between atoms: _157  and  _159
REMARK   62  A    between atoms: _159  and  _160
REMARK   63  A    between atoms: _159  and  _162
REMARK   64  A    between atoms: _162  and  _163
REMARK   65  A    between atoms: _168  and  _169
REMARK   66  A    between atoms: _171  and  _173
REMARK   67  A    between atoms: _173  and  _174
REMARK   68  A    between atoms: _173  and  _176
REMARK   69  A    between atoms: _179  and  _181
REMARK   70  A    between atoms: _181  and  _182
REMARK   71  A    between atoms: _181  and  _184
REMARK   72  A    between atoms: _184  and  _185
REMARK   73  A    between atoms: _191  and  _192
REMARK   74  A    between atoms: _197  and  _199
REMARK   75  A    between atoms: _199  and  _200
REMARK   76  A    between atoms: _199  and  _202
REMARK   77  A    between atoms: _202  and  _203
REMARK   78  A    between atoms: _205  and  _207
REMARK   79  A    between atoms: _207  and  _208
REMARK   80  A    between atoms: _207  and  _210
REMARK   81  A    between atoms: _210  and  _211
REMARK   82  A    between atoms: _211  and  _212
REMARK   83  A    between atoms: _215  and  _217
REMARK   84  A    between atoms: _217  and  _218
REMARK   85  A    between atoms: _217  and  _220
REMARK   86  A    between atoms: _220  and  _221
REMARK   87  A    between atoms: _226  and  _227
REMARK   88  A    between atoms: _229  and  _231
REMARK   89  A    between atoms: _231  and  _232
REMARK   90  A    between atoms: _231  and  _234
REMARK   91  A    between atoms: _234  and  _235
REMARK   92  A    between atoms: _240  and  _242
REMARK   93  A    between atoms: _242  and  _243
REMARK   94  A    between atoms: _242  and  _245
REMARK   95  A    between atoms: _245  and  _246
REMARK   96  A    between atoms: _251  and  _253
REMARK   97  A    between atoms: _253  and  _254
REMARK   98  A    between atoms: _253  and  _256
REMARK   99  A    between atoms: _256  and  _257
REMARK  100  A    between atoms: _257  and  _258
REMARK  101  A    between atoms: _260  and  _262
REMARK  102  A    between atoms: _262  and  _263
REMARK  103  A    between atoms: _262  and  _265
REMARK  104  A    between atoms: _265  and  _266
REMARK  105  A    between atoms: _271  and  _272
REMARK  106  A    between atoms: _274  and  _276
REMARK  107  A    between atoms: _276  and  _277
REMARK  108  A    between atoms: _276  and  _279
REMARK  109  A    between atoms: _279  and  _280
REMARK  110  A    between atoms: _283  and  _285
REMARK  111  A    between atoms: _285  and  _286
REMARK  112  A    between atoms: _285  and  _288
REMARK  113  A    between atoms: _288  and  _289
REMARK  114  A    between atoms: _289  and  _497
REMARK  115  A    between atoms: _290  and  _292
REMARK  116  A    between atoms: _292  and  _293
REMARK  117  A    between atoms: _292  and  _295
REMARK  118  A    between atoms: _295  and  _296
REMARK  119  A    between atoms: _299  and  _301
REMARK  120  A    between atoms: _301  and  _302
REMARK  121  A    between atoms: _301  and  _304
REMARK  122  A    between atoms: _304  and  _305
REMARK  123  A    between atoms: _310  and  _311
REMARK  124  A    between atoms: _313  and  _315
REMARK  125  A    between atoms: _315  and  _316
REMARK  126  A    between atoms: _315  and  _318
REMARK  127  A    between atoms: _318  and  _319
REMARK  128  A    between atoms: _324  and  _325
REMARK  129  A    between atoms: _327  and  _329
REMARK  130  A    between atoms: _329  and  _330
REMARK  131  A    between atoms: _329  and  _332
REMARK  132  A    between atoms: _332  and  _333
REMARK  133  A    between atoms: _333  and  _334
REMARK  134  A    between atoms: _337  and  _339
REMARK  135  A    between atoms: _339  and  _340
REMARK  136  A    between atoms: _339  and  _342
REMARK  137  A    between atoms: _342  and  _343
REMARK  138  A    between atoms: _348  and  _349
REMARK  139  A    between atoms: _351  and  _353
REMARK  140  A    between atoms: _353  and  _354
REMARK  141  A    between atoms: _353  and  _356
REMARK  142  A    between atoms: _356  and  _357
REMARK  143  A    between atoms: _362  and  _364
REMARK  144  A    between atoms: _364  and  _365
REMARK  145  A    between atoms: _364  and  _367
REMARK  146  A    between atoms: _367  and  _368
REMARK  147  A    between atoms: _371  and  _373
REMARK  148  A    between atoms: _373  and  _374
REMARK  149  A    between atoms: _373  and  _376
REMARK  150  A    between atoms: _376  and  _377
REMARK  151  A    between atoms: _382  and  _384
REMARK  152  A    between atoms: _384  and  _385
REMARK  153  A    between atoms: _384  and  _387
REMARK  154  A    between atoms: _387  and  _388
REMARK  155  A    between atoms: _398  and  _400
REMARK  156  A    between atoms: _400  and  _401
REMARK  157  A    between atoms: _400  and  _403
REMARK  158  A    between atoms: _403  and  _404
REMARK  159  A    between atoms: _410  and  _412
REMARK  160  A    between atoms: _412  and  _413
REMARK  161  A    between atoms: _412  and  _415
REMARK  162  A    between atoms: _415  and  _416
REMARK  163  A    between atoms: _419  and  _421
REMARK  164  A    between atoms: _421  and  _422
REMARK  165  A    between atoms: _421  and  _424
REMARK  166  A    between atoms: _424  and  _425
REMARK  167  A    between atoms: _425  and  _426
REMARK  168  A    between atoms: _426  and  _427
REMARK  169  A    between atoms: _436  and  _438
REMARK  170  A    between atoms: _438  and  _439
REMARK  171  A    between atoms: _438  and  _441
REMARK  172  A    between atoms: _441  and  _442
REMARK  173  A    between atoms: _447  and  _449
REMARK  174  A    between atoms: _449  and  _450
REMARK  175  A    between atoms: _449  and  _452
REMARK  176  A    between atoms: _452  and  _453
REMARK  177  A    between atoms: _453  and  _454
REMARK  178  A    between atoms: _454  and  _455
REMARK  179  A    between atoms: _464  and  _466
REMARK  180  A    between atoms: _466  and  _467
REMARK  181  A    between atoms: _470  and  _472
REMARK  182  A    between atoms: _472  and  _473
REMARK  183  A    between atoms: _475  and  _477
REMARK  184  A    between atoms: _477  and  _478
REMARK  185  A    between atoms: _477  and  _480
REMARK  186  A    between atoms: _480  and  _481
REMARK  187  A    between atoms: _491  and  _493
REMARK  188  A    between atoms: _493  and  _494
REMARK  189  A    between atoms: _493  and  _496
REMARK  190  A    between atoms: _496  and  _497
REMARK  191  A    between atoms: _498  and  _500
REMARK  192  A    between atoms: _500  and  _501
REMARK  193  A    between atoms: _504  and  _506
REMARK  194  A    between atoms: _506  and  _507
REMARK  195  A    between atoms: _506  and  _509
REMARK  196  A    between atoms: _509  and  _510
REMARK  197  A    between atoms: _513  and  _515
REMARK  198  A    between atoms: _515  and  _516
REMARK  199  A    between atoms: _515  and  _518
REMARK  200  A    between atoms: _518  and  _519
REMARK  201  A    between atoms: _524  and  _525
REMARK  202  A    between atoms: _527  and  _529
REMARK  203  A    between atoms: _529  and  _530
REMARK  204  A    between atoms: _529  and  _532
REMARK  205  A    between atoms: _532  and  _533
REMARK  206  A    between atoms: _535  and  _537
REMARK  207  A    between atoms: _537  and  _538
REMARK  208  A    between atoms: _537  and  _540
REMARK  209  A    between atoms: _540  and  _541
REMARK  210  A    between atoms: _547  and  _549
REMARK  211  A    between atoms: _549  and  _550
REMARK  212  A    between atoms: _549  and  _552
REMARK  213  A    between atoms: _552  and  _553
REMARK  214  A    between atoms: _556  and  _558
REMARK  215  A    between atoms: _558  and  _559
REMARK  216  A    between atoms: _558  and  _561
REMARK  217  A    between atoms: _561  and  _562
REMARK  218  A    between atoms: _562  and  _563
REMARK  219  A    between atoms: _565  and  _567
REMARK  220  A    between atoms: _567  and  _568
REMARK  221  A    between atoms: _567  and  _570
REMARK  222  A    between atoms: _570  and  _571
REMARK  223  A    between atoms: _573  and  _575
REMARK  224  A    between atoms: _575  and  _576
REMARK  225  A    between atoms: _575  and  _578
REMARK  226  A    between atoms: _578  and  _579
REMARK  227  A    between atoms: _581  and  _583
REMARK  228  A    between atoms: _583  and  _584
REMARK  229  A    between atoms: _583  and  _586
REMARK  230  A    between atoms: _586  and  _587
REMARK  231  A    between atoms: _592  and  _594
REMARK  232  A    between atoms: _594  and  _595
REMARK  233  A    between atoms: _594  and  _597
REMARK  234  A    between atoms: _597  and  _598
REMARK  235  A    between atoms: _603  and  _605
REMARK  236  A    between atoms: _605  and  _606
REMARK  237  A    between atoms: _605  and  _608
REMARK  238  A    between atoms: _608  and  _609
REMARK  239  A    between atoms: _612  and  _614
REMARK  240  A    between atoms: _614  and  _615
REMARK  241  A    between atoms: _618  and  _620
REMARK  242  A    between atoms: _620  and  _621
REMARK  243  A    between atoms: _620  and  _623
REMARK  244  A    between atoms: _623  and  _624
REMARK  245  A    between atoms: _629  and  _631
REMARK  246  A    between atoms: _631  and  _632
REMARK  247  A    between atoms: _631  and  _634
REMARK  248  A    between atoms: _634  and  _635
REMARK  249  A    between atoms: _640  and  _641
REMARK  250  A    between atoms: _643  and  _645
REMARK  251  A    between atoms: _645  and  _646
REMARK  252  A    between atoms: _645  and  _648
REMARK  253  A    between atoms: _648  and  _649
REMARK  254  A    between atoms: _654  and  _655
REMARK  255  A    between atoms: _657  and  _659
REMARK  256  A    between atoms: _659  and  _660
REMARK  257  A    between atoms: _659  and  _662
REMARK  258  A    between atoms: _665  and  _667
REMARK  259  A    between atoms: _667  and  _668
REMARK  260  A    between atoms: _667  and  _670
REMARK  261  A    between atoms: _670  and  _671
REMARK  262  A    between atoms: _676  and  _678
REMARK  263  A    between atoms: _678  and  _679
REMARK  264  A    between atoms: _682  and  _684
REMARK  265  A    between atoms: _684  and  _685
REMARK  266  A    between atoms: _684  and  _687
REMARK  267  A    between atoms: _687  and  _688
REMARK  268  A    between atoms: _688  and  _689
REMARK  269  A    between atoms: _689  and  _690
REMARK  270  A    between atoms: _699  and  _701
REMARK  271  A    between atoms: _701  and  _702
REMARK  272  A    between atoms: _701  and  _704
REMARK  273  A    between atoms: _704  and  _705
REMARK  274  A    between atoms: _708  and  _710
REMARK  275  A    between atoms: _710  and  _711
REMARK  276  A    between atoms: _710  and  _713
REMARK  277  A    between atoms: _713  and  _714
REMARK  278  A    between atoms: _717  and  _719
REMARK  279  A    between atoms: _719  and  _720
REMARK  280  A    between atoms: _719  and  _722
REMARK  281  A    between atoms: _722  and  _723
REMARK                            x       y       z     vdW  Elec       q    Type
REMARK                         _______ _______ _______ _____ _____    ______ ____
ROOT
ATOM      1  O   HOH     1       8.875  26.613  15.978  0.00  0.00    +0.000 OA
ENDROOT
TORSDOF 0
REMARK  Name = ../refined-set-2016/1qka/1qka_pocket.pdb
REMARK  281 active torsions:
REMARK  status: ('A' for Active; 'I' for Inactive)
REMARK    1  A    between atoms: _1  and  _3
REMARK    2  A    between atoms: _3  and  _4
REMARK    3  A    between atoms: _3  and  _6
REMARK    4  A    between atoms: _6  and  _7
REMARK    5  A    between atoms: _12  and  _14
REMARK    6  A    between atoms: _14  and  _15
REMARK    7  A    between atoms: _17  and  _19
REMARK    8  A    between atoms: _19  and  _20
REMARK    9  A    between atoms: _19  and  _22
REMARK   10  A    between atoms: _22  and  _23
REMARK   11  A    between atoms: _25  and  _27
REMARK   12  A    between atoms: _27  and  _28
REMARK   13  A    between atoms: _27  and  _30
REMARK   14  A    between atoms: _30  and  _31
REMARK   15  A    between atoms: _31  and  _32
REMARK   16  A    between atoms: _37  and  _39
REMARK   17  A    between atoms: _39  and  _40
REMARK   18  A    between atoms: _39  and  _42
REMARK   19  A    between atoms: _42  and  _43
REMARK   20  A    between atoms: _46  and  _48
REMARK   21  A    between atoms: _48  and  _49
REMARK   22  A    between atoms: _48  and  _51
REMARK   23  A    between atoms: _51  and  _52
REMARK   24  A    between atoms: _52  and  _53
REMARK   25  A    between atoms: _56  and  _58
REMARK   26  A    between atoms: _58  and  _59
REMARK   27  A    between atoms: _61  and  _63
REMARK   28  A    between atoms: _63  and  _64
REMARK   29  A    between atoms: _63  and  _66
REMARK   30  A    between atoms: _70  and  _71
REMARK   31  A    between atoms: _76  and  _78
REMARK   32  A    between atoms: _78  and  _79
REMARK   33  A    between atoms: _78  and  _81
REMARK   34  A    between atoms: _81  and  _82
REMARK   35  A    between atoms: _82  and  _83
REMARK   36  A    between atoms: _86  and  _88
REMARK   37  A    between atoms: _88  and  _89
REMARK   38  A    between atoms: _88  and  _91
REMARK   39  A    between atoms: _91  and  _92
REMARK   40  A    between atoms: _94  and  _96
REMARK   41  A    between atoms: _96  and  _97
REMARK   42  A    between atoms: _96  and  _99
REMARK   43  A    between atoms: _99  and  _100
REMARK   44  A    between atoms: _105  and  _107
REMARK   45  A    between atoms: _107  and  _108
REMARK   46  A    between atoms: _107  and  _110
REMARK   47  A    between atoms: _110  and  _111
REMARK   48  A    between atoms: _111  and  _112
REMARK   49  A    between atoms: _112  and  _113
REMARK   50  A    between atoms: _123  and  _124
REMARK   51  A    between atoms: _129  and  _131
REMARK   52  A    between atoms: _131  and  _132
REMARK   53  A    between atoms: _131  and  _134
REMARK   54  A    between atoms: _134  and  _135
REMARK   55  A    between atoms: _140  and  _141
REMARK   56  A    between atoms: _143  and  _145
REMARK   57  A    between atoms: _145  and  _146
REMARK   58  A    between atoms: _145  and  _148
REMARK   59  A    between atoms: _148  and  _149
REMARK   60  A    between atoms: _154  and  _155
REMARK   61  A    between atoms: _157  and  _159
REMARK   62  A    between atoms: _159  and  _160
REMARK   63  A    between atoms: _159  and  _162
REMARK   64  A    between atoms: _162  and  _163
REMARK   65  A    between atoms: _168  and  _169
REMARK   66  A    between atoms: _171  and  _173
REMARK   67  A    between atoms: _173  and  _174
REMARK   68  A    between atoms: _173  and  _176
REMARK   69  A    between atoms: _179  and  _181
REMARK   70  A    between atoms: _181  and  _182
REMARK   71  A    between atoms: _181  and  _184
REMARK   72  A    between atoms: _184  and  _185
REMARK   73  A    between atoms: _191  and  _192
REMARK   74  A    between atoms: _197  and  _199
REMARK   75  A    between atoms: _199  and  _200
REMARK   76  A    between atoms: _199  and  _202
REMARK   77  A    between atoms: _202  and  _203
REMARK   78  A    between atoms: _205  and  _207
REMARK   79  A    between atoms: _207  and  _208
REMARK   80  A    between atoms: _207  and  _210
REMARK   81  A    between atoms: _210  and  _211
REMARK   82  A    between atoms: _211  and  _212
REMARK   83  A    between atoms: _215  and  _217
REMARK   84  A    between atoms: _217  and  _218
REMARK   85  A    between atoms: _217  and  _220
REMARK   86  A    between atoms: _220  and  _221
REMARK   87  A    between atoms: _226  and  _227
REMARK   88  A    between atoms: _229  and  _231
REMARK   89  A    between atoms: _231  and  _232
REMARK   90  A    between atoms: _231  and  _234
REMARK   91  A    between atoms: _234  and  _235
REMARK   92  A    between atoms: _240  and  _242
REMARK   93  A    between atoms: _242  and  _243
REMARK   94  A    between atoms: _242  and  _245
REMARK   95  A    between atoms: _245  and  _246
REMARK   96  A    between atoms: _251  and  _253
REMARK   97  A    between atoms: _253  and  _254
REMARK   98  A    between atoms: _253  and  _256
REMARK   99  A    between atoms: _256  and  _257
REMARK  100  A    between atoms: _257  and  _258
REMARK  101  A    between atoms: _260  and  _262
REMARK  102  A    between atoms: _262  and  _263
REMARK  103  A    between atoms: _262  and  _265
REMARK  104  A    between atoms: _265  and  _266
REMARK  105  A    between atoms: _271  and  _272
REMARK  106  A    between atoms: _274  and  _276
REMARK  107  A    between atoms: _276  and  _277
REMARK  108  A    between atoms: _276  and  _279
REMARK  109  A    between atoms: _279  and  _280
REMARK  110  A    between atoms: _283  and  _285
REMARK  111  A    between atoms: _285  and  _286
REMARK  112  A    between atoms: _285  and  _288
REMARK  113  A    between atoms: _288  and  _289
REMARK  114  A    between atoms: _289  and  _497
REMARK  115  A    between atoms: _290  and  _292
REMARK  116  A    between atoms: _292  and  _293
REMARK  117  A    between atoms: _292  and  _295
REMARK  118  A    between atoms: _295  and  _296
REMARK  119  A    between atoms: _299  and  _301
REMARK  120  A    between atoms: _301  and  _302
REMARK  121  A    between atoms: _301  and  _304
REMARK  122  A    between atoms: _304  and  _305
REMARK  123  A    between atoms: _310  and  _311
REMARK  124  A    between atoms: _313  and  _315
REMARK  125  A    between atoms: _315  and  _316
REMARK  126  A    between atoms: _315  and  _318
REMARK  127  A    between atoms: _318  and  _319
REMARK  128  A    between atoms: _324  and  _325
REMARK  129  A    between atoms: _327  and  _329
REMARK  130  A    between atoms: _329  and  _330
REMARK  131  A    between atoms: _329  and  _332
REMARK  132  A    between atoms: _332  and  _333
REMARK  133  A    between atoms: _333  and  _334
REMARK  134  A    between atoms: _337  and  _339
REMARK  135  A    between atoms: _339  and  _340
REMARK  136  A    between atoms: _339  and  _342
REMARK  137  A    between atoms: _342  and  _343
REMARK  138  A    between atoms: _348  and  _349
REMARK  139  A    between atoms: _351  and  _353
REMARK  140  A    between atoms: _353  and  _354
REMARK  141  A    between atoms: _353  and  _356
REMARK  142  A    between atoms: _356  and  _357
REMARK  143  A    between atoms: _362  and  _364
REMARK  144  A    between atoms: _364  and  _365
REMARK  145  A    between atoms: _364  and  _367
REMARK  146  A    between atoms: _367  and  _368
REMARK  147  A    between atoms: _371  and  _373
REMARK  148  A    between atoms: _373  and  _374
REMARK  149  A    between atoms: _373  and  _376
REMARK  150  A    between atoms: _376  and  _377
REMARK  151  A    between atoms: _382  and  _384
REMARK  152  A    between atoms: _384  and  _385
REMARK  153  A    between atoms: _384  and  _387
REMARK  154  A    between atoms: _387  and  _388
REMARK  155  A    between atoms: _398  and  _400
REMARK  156  A    between atoms: _400  and  _401
REMARK  157  A    between atoms: _400  and  _403
REMARK  158  A    between atoms: _403  and  _404
REMARK  159  A    between atoms: _410  and  _412
REMARK  160  A    between atoms: _412  and  _413
REMARK  161  A    between atoms: _412  and  _415
REMARK  162  A    between atoms: _415  and  _416
REMARK  163  A    between atoms: _419  and  _421
REMARK  164  A    between atoms: _421  and  _422
REMARK  165  A    between atoms: _421  and  _424
REMARK  166  A    between atoms: _424  and  _425
REMARK  167  A    between atoms: _425  and  _426
REMARK  168  A    between atoms: _426  and  _427
REMARK  169  A    between atoms: _436  and  _438
REMARK  170  A    between atoms: _438  and  _439
REMARK  171  A    between atoms: _438  and  _441
REMARK  172  A    between atoms: _441  and  _442
REMARK  173  A    between atoms: _447  and  _449
REMARK  174  A    between atoms: _449  and  _450
REMARK  175  A    between atoms: _449  and  _452
REMARK  176  A    between atoms: _452  and  _453
REMARK  177  A    between atoms: _453  and  _454
REMARK  178  A    between atoms: _454  and  _455
REMARK  179  A    between atoms: _464  and  _466
REMARK  180  A    between atoms: _466  and  _467
REMARK  181  A    between atoms: _470  and  _472
REMARK  182  A    between atoms: _472  and  _473
REMARK  183  A    between atoms: _475  and  _477
REMARK  184  A    between atoms: _477  and  _478
REMARK  185  A    between atoms: _477  and  _480
REMARK  186  A    between atoms: _480  and  _481
REMARK  187  A    between atoms: _491  and  _493
REMARK  188  A    between atoms: _493  and  _494
REMARK  189  A    between atoms: _493  and  _496
REMARK  190  A    between atoms: _496  and  _497
REMARK  191  A    between atoms: _498  and  _500
REMARK  192  A    between atoms: _500  and  _501
REMARK  193  A    between atoms: _504  and  _506
REMARK  194  A    between atoms: _506  and  _507
REMARK  195  A    between atoms: _506  and  _509
REMARK  196  A    between atoms: _509  and  _510
REMARK  197  A    between atoms: _513  and  _515
REMARK  198  A    between atoms: _515  and  _516
REMARK  199  A    between atoms: _515  and  _518
REMARK  200  A    between atoms: _518  and  _519
REMARK  201  A    between atoms: _524  and  _525
REMARK  202  A    between atoms: _527  and  _529
REMARK  203  A    between atoms: _529  and  _530
REMARK  204  A    between atoms: _529  and  _532
REMARK  205  A    between atoms: _532  and  _533
REMARK  206  A    between atoms: _535  and  _537
REMARK  207  A    between atoms: _537  and  _538
REMARK  208  A    between atoms: _537  and  _540
REMARK  209  A    between atoms: _540  and  _541
REMARK  210  A    between atoms: _547  and  _549
REMARK  211  A    between atoms: _549  and  _550
REMARK  212  A    between atoms: _549  and  _552
REMARK  213  A    between atoms: _552  and  _553
REMARK  214  A    between atoms: _556  and  _558
REMARK  215  A    between atoms: _558  and  _559
REMARK  216  A    between atoms: _558  and  _561
REMARK  217  A    between atoms: _561  and  _562
REMARK  218  A    between atoms: _562  and  _563
REMARK  219  A    between atoms: _565  and  _567
REMARK  220  A    between atoms: _567  and  _568
REMARK  221  A    between atoms: _567  and  _570
REMARK  222  A    between atoms: _570  and  _571
REMARK  223  A    between atoms: _573  and  _575
REMARK  224  A    between atoms: _575  and  _576
REMARK  225  A    between atoms: _575  and  _578
REMARK  226  A    between atoms: _578  and  _579
REMARK  227  A    between atoms: _581  and  _583
REMARK  228  A    between atoms: _583  and  _584
REMARK  229  A    between atoms: _583  and  _586
REMARK  230  A    between atoms: _586  and  _587
REMARK  231  A    between atoms: _592  and  _594
REMARK  232  A    between atoms: _594  and  _595
REMARK  233  A    between atoms: _594  and  _597
REMARK  234  A    between atoms: _597  and  _598
REMARK  235  A    between atoms: _603  and  _605
REMARK  236  A    between atoms: _605  and  _606
REMARK  237  A    between atoms: _605  and  _608
REMARK  238  A    between atoms: _608  and  _609
REMARK  239  A    between atoms: _612  and  _614
REMARK  240  A    between atoms: _614  and  _615
REMARK  241  A    between atoms: _618  and  _620
REMARK  242  A    between atoms: _620  and  _621
REMARK  243  A    between atoms: _620  and  _623
REMARK  244  A    between atoms: _623  and  _624
REMARK  245  A    between atoms: _629  and  _631
REMARK  246  A    between atoms: _631  and  _632
REMARK  247  A    between atoms: _631  and  _634
REMARK  248  A    between atoms: _634  and  _635
REMARK  249  A    between atoms: _640  and  _641
REMARK  250  A    between atoms: _643  and  _645
REMARK  251  A    between atoms: _645  and  _646
REMARK  252  A    between atoms: _645  and  _648
REMARK  253  A    between atoms: _648  and  _649
REMARK  254  A    between atoms: _654  and  _655
REMARK  255  A    between atoms: _657  and  _659
REMARK  256  A    between atoms: _659  and  _660
REMARK  257  A    between atoms: _659  and  _662
REMARK  258  A    between atoms: _665  and  _667
REMARK  259  A    between atoms: _667  and  _668
REMARK  260  A    between atoms: _667  and  _670
REMARK  261  A    between atoms: _670  and  _671
REMARK  262  A    between atoms: _676  and  _678
REMARK  263  A    between atoms: _678  and  _679
REMARK  264  A    between atoms: _682  and  _684
REMARK  265  A    between atoms: _684  and  _685
REMARK  266  A    between atoms: _684  and  _687
REMARK  267  A    between atoms: _687  and  _688
REMARK  268  A    between atoms: _688  and  _689
REMARK  269  A    between atoms: _689  and  _690
REMARK  270  A    between atoms: _699  and  _701
REMARK  271  A    between atoms: _701  and  _702
REMARK  272  A    between atoms: _701  and  _704
REMARK  273  A    between atoms: _704  and  _705
REMARK  274  A    between atoms: _708  and  _710
REMARK  275  A    between atoms: _710  and  _711
REMARK  276  A    between atoms: _710  and  _713
REMARK  277  A    between atoms: _713  and  _714
REMARK  278  A    between atoms: _717  and  _719
REMARK  279  A    between atoms: _719  and  _720
REMARK  280  A    between atoms: _719  and  _722
REMARK  281  A    between atoms: _722  and  _723
REMARK                            x       y       z     vdW  Elec       q    Type
REMARK                         _______ _______ _______ _____ _____    ______ ____
ROOT
ATOM      1  O   HOH     1       7.769  15.581   6.817  0.00  0.00    +0.000 OA
ENDROOT
TORSDOF 0
REMARK  Name = ../refined-set-2016/1qka/1qka_pocket.pdb
REMARK  281 active torsions:
REMARK  status: ('A' for Active; 'I' for Inactive)
REMARK    1  A    between atoms: _1  and  _3
REMARK    2  A    between atoms: _3  and  _4
REMARK    3  A    between atoms: _3  and  _6
REMARK    4  A    between atoms: _6  and  _7
REMARK    5  A    between atoms: _12  and  _14
REMARK    6  A    between atoms: _14  and  _15
REMARK    7  A    between atoms: _17  and  _19
REMARK    8  A    between atoms: _19  and  _20
REMARK    9  A    between atoms: _19  and  _22
REMARK   10  A    between atoms: _22  and  _23
REMARK   11  A    between atoms: _25  and  _27
REMARK   12  A    between atoms: _27  and  _28
REMARK   13  A    between atoms: _27  and  _30
REMARK   14  A    between atoms: _30  and  _31
REMARK   15  A    between atoms: _31  and  _32
REMARK   16  A    between atoms: _37  and  _39
REMARK   17  A    between atoms: _39  and  _40
REMARK   18  A    between atoms: _39  and  _42
REMARK   19  A    between atoms: _42  and  _43
REMARK   20  A    between atoms: _46  and  _48
REMARK   21  A    between atoms: _48  and  _49
REMARK   22  A    between atoms: _48  and  _51
REMARK   23  A    between atoms: _51  and  _52
REMARK   24  A    between atoms: _52  and  _53
REMARK   25  A    between atoms: _56  and  _58
REMARK   26  A    between atoms: _58  and  _59
REMARK   27  A    between atoms: _61  and  _63
REMARK   28  A    between atoms: _63  and  _64
REMARK   29  A    between atoms: _63  and  _66
REMARK   30  A    between atoms: _70  and  _71
REMARK   31  A    between atoms: _76  and  _78
REMARK   32  A    between atoms: _78  and  _79
REMARK   33  A    between atoms: _78  and  _81
REMARK   34  A    between atoms: _81  and  _82
REMARK   35  A    between atoms: _82  and  _83
REMARK   36  A    between atoms: _86  and  _88
REMARK   37  A    between atoms: _88  and  _89
REMARK   38  A    between atoms: _88  and  _91
REMARK   39  A    between atoms: _91  and  _92
REMARK   40  A    between atoms: _94  and  _96
REMARK   41  A    between atoms: _96  and  _97
REMARK   42  A    between atoms: _96  and  _99
REMARK   43  A    between atoms: _99  and  _100
REMARK   44  A    between atoms: _105  and  _107
REMARK   45  A    between atoms: _107  and  _108
REMARK   46  A    between atoms: _107  and  _110
REMARK   47  A    between atoms: _110  and  _111
REMARK   48  A    between atoms: _111  and  _112
REMARK   49  A    between atoms: _112  and  _113
REMARK   50  A    between atoms: _123  and  _124
REMARK   51  A    between atoms: _129  and  _131
REMARK   52  A    between atoms: _131  and  _132
REMARK   53  A    between atoms: _131  and  _134
REMARK   54  A    between atoms: _134  and  _135
REMARK   55  A    between atoms: _140  and  _141
REMARK   56  A    between atoms: _143  and  _145
REMARK   57  A    between atoms: _145  and  _146
REMARK   58  A    between atoms: _145  and  _148
REMARK   59  A    between atoms: _148  and  _149
REMARK   60  A    between atoms: _154  and  _155
REMARK   61  A    between atoms: _157  and  _159
REMARK   62  A    between atoms: _159  and  _160
REMARK   63  A    between atoms: _159  and  _162
REMARK   64  A    between atoms: _162  and  _163
REMARK   65  A    between atoms: _168  and  _169
REMARK   66  A    between atoms: _171  and  _173
REMARK   67  A    between atoms: _173  and  _174
REMARK   68  A    between atoms: _173  and  _176
REMARK   69  A    between atoms: _179  and  _181
REMARK   70  A    between atoms: _181  and  _182
REMARK   71  A    between atoms: _181  and  _184
REMARK   72  A    between atoms: _184  and  _185
REMARK   73  A    between atoms: _191  and  _192
REMARK   74  A    between atoms: _197  and  _199
REMARK   75  A    between atoms: _199  and  _200
REMARK   76  A    between atoms: _199  and  _202
REMARK   77  A    between atoms: _202  and  _203
REMARK   78  A    between atoms: _205  and  _207
REMARK   79  A    between atoms: _207  and  _208
REMARK   80  A    between atoms: _207  and  _210
REMARK   81  A    between atoms: _210  and  _211
REMARK   82  A    between atoms: _211  and  _212
REMARK   83  A    between atoms: _215  and  _217
REMARK   84  A    between atoms: _217  and  _218
REMARK   85  A    between atoms: _217  and  _220
REMARK   86  A    between atoms: _220  and  _221
REMARK   87  A    between atoms: _226  and  _227
REMARK   88  A    between atoms: _229  and  _231
REMARK   89  A    between atoms: _231  and  _232
REMARK   90  A    between atoms: _231  and  _234
REMARK   91  A    between atoms: _234  and  _235
REMARK   92  A    between atoms: _240  and  _242
REMARK   93  A    between atoms: _242  and  _243
REMARK   94  A    between atoms: _242  and  _245
REMARK   95  A    between atoms: _245  and  _246
REMARK   96  A    between atoms: _251  and  _253
REMARK   97  A    between atoms: _253  and  _254
REMARK   98  A    between atoms: _253  and  _256
REMARK   99  A    between atoms: _256  and  _257
REMARK  100  A    between atoms: _257  and  _258
REMARK  101  A    between atoms: _260  and  _262
REMARK  102  A    between atoms: _262  and  _263
REMARK  103  A    between atoms: _262  and  _265
REMARK  104  A    between atoms: _265  and  _266
REMARK  105  A    between atoms: _271  and  _272
REMARK  106  A    between atoms: _274  and  _276
REMARK  107  A    between atoms: _276  and  _277
REMARK  108  A    between atoms: _276  and  _279
REMARK  109  A    between atoms: _279  and  _280
REMARK  110  A    between atoms: _283  and  _285
REMARK  111  A    between atoms: _285  and  _286
REMARK  112  A    between atoms: _285  and  _288
REMARK  113  A    between atoms: _288  and  _289
REMARK  114  A    between atoms: _289  and  _497
REMARK  115  A    between atoms: _290  and  _292
REMARK  116  A    between atoms: _292  and  _293
REMARK  117  A    between atoms: _292  and  _295
REMARK  118  A    between atoms: _295  and  _296
REMARK  119  A    between atoms: _299  and  _301
REMARK  120  A    between atoms: _301  and  _302
REMARK  121  A    between atoms: _301  and  _304
REMARK  122  A    between atoms: _304  and  _305
REMARK  123  A    between atoms: _310  and  _311
REMARK  124  A    between atoms: _313  and  _315
REMARK  125  A    between atoms: _315  and  _316
REMARK  126  A    between atoms: _315  and  _318
REMARK  127  A    between atoms: _318  and  _319
REMARK  128  A    between atoms: _324  and  _325
REMARK  129  A    between atoms: _327  and  _329
REMARK  130  A    between atoms: _329  and  _330
REMARK  131  A    between atoms: _329  and  _332
REMARK  132  A    between atoms: _332  and  _333
REMARK  133  A    between atoms: _333  and  _334
REMARK  134  A    between atoms: _337  and  _339
REMARK  135  A    between atoms: _339  and  _340
REMARK  136  A    between atoms: _339  and  _342
REMARK  137  A    between atoms: _342  and  _343
REMARK  138  A    between atoms: _348  and  _349
REMARK  139  A    between atoms: _351  and  _353
REMARK  140  A    between atoms: _353  and  _354
REMARK  141  A    between atoms: _353  and  _356
REMARK  142  A    between atoms: _356  and  _357
REMARK  143  A    between atoms: _362  and  _364
REMARK  144  A    between atoms: _364  and  _365
REMARK  145  A    between atoms: _364  and  _367
REMARK  146  A    between atoms: _367  and  _368
REMARK  147  A    between atoms: _371  and  _373
REMARK  148  A    between atoms: _373  and  _374
REMARK  149  A    between atoms: _373  and  _376
REMARK  150  A    between atoms: _376  and  _377
REMARK  151  A    between atoms: _382  and  _384
REMARK  152  A    between atoms: _384  and  _385
REMARK  153  A    between atoms: _384  and  _387
REMARK  154  A    between atoms: _387  and  _388
REMARK  155  A    between atoms: _398  and  _400
REMARK  156  A    between atoms: _400  and  _401
REMARK  157  A    between atoms: _400  and  _403
REMARK  158  A    between atoms: _403  and  _404
REMARK  159  A    between atoms: _410  and  _412
REMARK  160  A    between atoms: _412  and  _413
REMARK  161  A    between atoms: _412  and  _415
REMARK  162  A    between atoms: _415  and  _416
REMARK  163  A    between atoms: _419  and  _421
REMARK  164  A    between atoms: _421  and  _422
REMARK  165  A    between atoms: _421  and  _424
REMARK  166  A    between atoms: _424  and  _425
REMARK  167  A    between atoms: _425  and  _426
REMARK  168  A    between atoms: _426  and  _427
REMARK  169  A    between atoms: _436  and  _438
REMARK  170  A    between atoms: _438  and  _439
REMARK  171  A    between atoms: _438  and  _441
REMARK  172  A    between atoms: _441  and  _442
REMARK  173  A    between atoms: _447  and  _449
REMARK  174  A    between atoms: _449  and  _450
REMARK  175  A    between atoms: _449  and  _452
REMARK  176  A    between atoms: _452  and  _453
REMARK  177  A    between atoms: _453  and  _454
REMARK  178  A    between atoms: _454  and  _455
REMARK  179  A    between atoms: _464  and  _466
REMARK  180  A    between atoms: _466  and  _467
REMARK  181  A    between atoms: _470  and  _472
REMARK  182  A    between atoms: _472  and  _473
REMARK  183  A    between atoms: _475  and  _477
REMARK  184  A    between atoms: _477  and  _478
REMARK  185  A    between atoms: _477  and  _480
REMARK  186  A    between atoms: _480  and  _481
REMARK  187  A    between atoms: _491  and  _493
REMARK  188  A    between atoms: _493  and  _494
REMARK  189  A    between atoms: _493  and  _496
REMARK  190  A    between atoms: _496  and  _497
REMARK  191  A    between atoms: _498  and  _500
REMARK  192  A    between atoms: _500  and  _501
REMARK  193  A    between atoms: _504  and  _506
REMARK  194  A    between atoms: _506  and  _507
REMARK  195  A    between atoms: _506  and  _509
REMARK  196  A    between atoms: _509  and  _510
REMARK  197  A    between atoms: _513  and  _515
REMARK  198  A    between atoms: _515  and  _516
REMARK  199  A    between atoms: _515  and  _518
REMARK  200  A    between atoms: _518  and  _519
REMARK  201  A    between atoms: _524  and  _525
REMARK  202  A    between atoms: _527  and  _529
REMARK  203  A    between atoms: _529  and  _530
REMARK  204  A    between atoms: _529  and  _532
REMARK  205  A    between atoms: _532  and  _533
REMARK  206  A    between atoms: _535  and  _537
REMARK  207  A    between atoms: _537  and  _538
REMARK  208  A    between atoms: _537  and  _540
REMARK  209  A    between atoms: _540  and  _541
REMARK  210  A    between atoms: _547  and  _549
REMARK  211  A    between atoms: _549  and  _550
REMARK  212  A    between atoms: _549  and  _552
REMARK  213  A    between atoms: _552  and  _553
REMARK  214  A    between atoms: _556  and  _558
REMARK  215  A    between atoms: _558  and  _559
REMARK  216  A    between atoms: _558  and  _561
REMARK  217  A    between atoms: _561  and  _562
REMARK  218  A    between atoms: _562  and  _563
REMARK  219  A    between atoms: _565  and  _567
REMARK  220  A    between atoms: _567  and  _568
REMARK  221  A    between atoms: _567  and  _570
REMARK  222  A    between atoms: _570  and  _571
REMARK  223  A    between atoms: _573  and  _575
REMARK  224  A    between atoms: _575  and  _576
REMARK  225  A    between atoms: _575  and  _578
REMARK  226  A    between atoms: _578  and  _579
REMARK  227  A    between atoms: _581  and  _583
REMARK  228  A    between atoms: _583  and  _584
REMARK  229  A    between atoms: _583  and  _586
REMARK  230  A    between atoms: _586  and  _587
REMARK  231  A    between atoms: _592  and  _594
REMARK  232  A    between atoms: _594  and  _595
REMARK  233  A    between atoms: _594  and  _597
REMARK  234  A    between atoms: _597  and  _598
REMARK  235  A    between atoms: _603  and  _605
REMARK  236  A    between atoms: _605  and  _606
REMARK  237  A    between atoms: _605  and  _608
REMARK  238  A    between atoms: _608  and  _609
REMARK  239  A    between atoms: _612  and  _614
REMARK  240  A    between atoms: _614  and  _615
REMARK  241  A    between atoms: _618  and  _620
REMARK  242  A    between atoms: _620  and  _621
REMARK  243  A    between atoms: _620  and  _623
REMARK  244  A    between atoms: _623  and  _624
REMARK  245  A    between atoms: _629  and  _631
REMARK  246  A    between atoms: _631  and  _632
REMARK  247  A    between atoms: _631  and  _634
REMARK  248  A    between atoms: _634  and  _635
REMARK  249  A    between atoms: _640  and  _641
REMARK  250  A    between atoms: _643  and  _645
REMARK  251  A    between atoms: _645  and  _646
REMARK  252  A    between atoms: _645  and  _648
REMARK  253  A    between atoms: _648  and  _649
REMARK  254  A    between atoms: _654  and  _655
REMARK  255  A    between atoms: _657  and  _659
REMARK  256  A    between atoms: _659  and  _660
REMARK  257  A    between atoms: _659  and  _662
REMARK  258  A    between atoms: _665  and  _667
REMARK  259  A    between atoms: _667  and  _668
REMARK  260  A    between atoms: _667  and  _670
REMARK  261  A    between atoms: _670  and  _671
REMARK  262  A    between atoms: _676  and  _678
REMARK  263  A    between atoms: _678  and  _679
REMARK  264  A    between atoms: _682  and  _684
REMARK  265  A    between atoms: _684  and  _685
REMARK  266  A    between atoms: _684  and  _687
REMARK  267  A    between atoms: _687  and  _688
REMARK  268  A    between atoms: _688  and  _689
REMARK  269  A    between atoms: _689  and  _690
REMARK  270  A    between atoms: _699  and  _701
REMARK  271  A    between atoms: _701  and  _702
REMARK  272  A    between atoms: _701  and  _704
REMARK  273  A    between atoms: _704  and  _705
REMARK  274  A    between atoms: _708  and  _710
REMARK  275  A    between atoms: _710  and  _711
REMARK  276  A    between atoms: _710  and  _713
REMARK  277  A    between atoms: _713  and  _714
REMARK  278  A    between atoms: _717  and  _719
REMARK  279  A    between atoms: _719  and  _720
REMARK  280  A    between atoms: _719  and  _722
REMARK  281  A    between atoms: _722  and  _723
REMARK                            x       y       z     vdW  Elec       q    Type
REMARK                         _______ _______ _______ _____ _____    ______ ____
ROOT
ATOM      1  O   HOH     1       3.292  17.082   8.245  0.00  0.00    +0.000 OA
ENDROOT
TORSDOF 0
REMARK  Name = ../refined-set-2016/1qka/1qka_pocket.pdb
REMARK  281 active torsions:
REMARK  status: ('A' for Active; 'I' for Inactive)
REMARK    1  A    between atoms: _1  and  _3
REMARK    2  A    between atoms: _3  and  _4
REMARK    3  A    between atoms: _3  and  _6
REMARK    4  A    between atoms: _6  and  _7
REMARK    5  A    between atoms: _12  and  _14
REMARK    6  A    between atoms: _14  and  _15
REMARK    7  A    between atoms: _17  and  _19
REMARK    8  A    between atoms: _19  and  _20
REMARK    9  A    between atoms: _19  and  _22
REMARK   10  A    between atoms: _22  and  _23
REMARK   11  A    between atoms: _25  and  _27
REMARK   12  A    between atoms: _27  and  _28
REMARK   13  A    between atoms: _27  and  _30
REMARK   14  A    between atoms: _30  and  _31
REMARK   15  A    between atoms: _31  and  _32
REMARK   16  A    between atoms: _37  and  _39
REMARK   17  A    between atoms: _39  and  _40
REMARK   18  A    between atoms: _39  and  _42
REMARK   19  A    between atoms: _42  and  _43
REMARK   20  A    between atoms: _46  and  _48
REMARK   21  A    between atoms: _48  and  _49
REMARK   22  A    between atoms: _48  and  _51
REMARK   23  A    between atoms: _51  and  _52
REMARK   24  A    between atoms: _52  and  _53
REMARK   25  A    between atoms: _56  and  _58
REMARK   26  A    between atoms: _58  and  _59
REMARK   27  A    between atoms: _61  and  _63
REMARK   28  A    between atoms: _63  and  _64
REMARK   29  A    between atoms: _63  and  _66
REMARK   30  A    between atoms: _70  and  _71
REMARK   31  A    between atoms: _76  and  _78
REMARK   32  A    between atoms: _78  and  _79
REMARK   33  A    between atoms: _78  and  _81
REMARK   34  A    between atoms: _81  and  _82
REMARK   35  A    between atoms: _82  and  _83
REMARK   36  A    between atoms: _86  and  _88
REMARK   37  A    between atoms: _88  and  _89
REMARK   38  A    between atoms: _88  and  _91
REMARK   39  A    between atoms: _91  and  _92
REMARK   40  A    between atoms: _94  and  _96
REMARK   41  A    between atoms: _96  and  _97
REMARK   42  A    between atoms: _96  and  _99
REMARK   43  A    between atoms: _99  and  _100
REMARK   44  A    between atoms: _105  and  _107
REMARK   45  A    between atoms: _107  and  _108
REMARK   46  A    between atoms: _107  and  _110
REMARK   47  A    between atoms: _110  and  _111
REMARK   48  A    between atoms: _111  and  _112
REMARK   49  A    between atoms: _112  and  _113
REMARK   50  A    between atoms: _123  and  _124
REMARK   51  A    between atoms: _129  and  _131
REMARK   52  A    between atoms: _131  and  _132
REMARK   53  A    between atoms: _131  and  _134
REMARK   54  A    between atoms: _134  and  _135
REMARK   55  A    between atoms: _140  and  _141
REMARK   56  A    between atoms: _143  and  _145
REMARK   57  A    between atoms: _145  and  _146
REMARK   58  A    between atoms: _145  and  _148
REMARK   59  A    between atoms: _148  and  _149
REMARK   60  A    between atoms: _154  and  _155
REMARK   61  A    between atoms: _157  and  _159
REMARK   62  A    between atoms: _159  and  _160
REMARK   63  A    between atoms: _159  and  _162
REMARK   64  A    between atoms: _162  and  _163
REMARK   65  A    between atoms: _168  and  _169
REMARK   66  A    between atoms: _171  and  _173
REMARK   67  A    between atoms: _173  and  _174
REMARK   68  A    between atoms: _173  and  _176
REMARK   69  A    between atoms: _179  and  _181
REMARK   70  A    between atoms: _181  and  _182
REMARK   71  A    between atoms: _181  and  _184
REMARK   72  A    between atoms: _184  and  _185
REMARK   73  A    between atoms: _191  and  _192
REMARK   74  A    between atoms: _197  and  _199
REMARK   75  A    between atoms: _199  and  _200
REMARK   76  A    between atoms: _199  and  _202
REMARK   77  A    between atoms: _202  and  _203
REMARK   78  A    between atoms: _205  and  _207
REMARK   79  A    between atoms: _207  and  _208
REMARK   80  A    between atoms: _207  and  _210
REMARK   81  A    between atoms: _210  and  _211
REMARK   82  A    between atoms: _211  and  _212
REMARK   83  A    between atoms: _215  and  _217
REMARK   84  A    between atoms: _217  and  _218
REMARK   85  A    between atoms: _217  and  _220
REMARK   86  A    between atoms: _220  and  _221
REMARK   87  A    between atoms: _226  and  _227
REMARK   88  A    between atoms: _229  and  _231
REMARK   89  A    between atoms: _231  and  _232
REMARK   90  A    between atoms: _231  and  _234
REMARK   91  A    between atoms: _234  and  _235
REMARK   92  A    between atoms: _240  and  _242
REMARK   93  A    between atoms: _242  and  _243
REMARK   94  A    between atoms: _242  and  _245
REMARK   95  A    between atoms: _245  and  _246
REMARK   96  A    between atoms: _251  and  _253
REMARK   97  A    between atoms: _253  and  _254
REMARK   98  A    between atoms: _253  and  _256
REMARK   99  A    between atoms: _256  and  _257
REMARK  100  A    between atoms: _257  and  _258
REMARK  101  A    between atoms: _260  and  _262
REMARK  102  A    between atoms: _262  and  _263
REMARK  103  A    between atoms: _262  and  _265
REMARK  104  A    between atoms: _265  and  _266
REMARK  105  A    between atoms: _271  and  _272
REMARK  106  A    between atoms: _274  and  _276
REMARK  107  A    between atoms: _276  and  _277
REMARK  108  A    between atoms: _276  and  _279
REMARK  109  A    between atoms: _279  and  _280
REMARK  110  A    between atoms: _283  and  _285
REMARK  111  A    between atoms: _285  and  _286
REMARK  112  A    between atoms: _285  and  _288
REMARK  113  A    between atoms: _288  and  _289
REMARK  114  A    between atoms: _289  and  _497
REMARK  115  A    between atoms: _290  and  _292
REMARK  116  A    between atoms: _292  and  _293
REMARK  117  A    between atoms: _292  and  _295
REMARK  118  A    between atoms: _295  and  _296
REMARK  119  A    between atoms: _299  and  _301
REMARK  120  A    between atoms: _301  and  _302
REMARK  121  A    between atoms: _301  and  _304
REMARK  122  A    between atoms: _304  and  _305
REMARK  123  A    between atoms: _310  and  _311
REMARK  124  A    between atoms: _313  and  _315
REMARK  125  A    between atoms: _315  and  _316
REMARK  126  A    between atoms: _315  and  _318
REMARK  127  A    between atoms: _318  and  _319
REMARK  128  A    between atoms: _324  and  _325
REMARK  129  A    between atoms: _327  and  _329
REMARK  130  A    between atoms: _329  and  _330
REMARK  131  A    between atoms: _329  and  _332
REMARK  132  A    between atoms: _332  and  _333
REMARK  133  A    between atoms: _333  and  _334
REMARK  134  A    between atoms: _337  and  _339
REMARK  135  A    between atoms: _339  and  _340
REMARK  136  A    between atoms: _339  and  _342
REMARK  137  A    between atoms: _342  and  _343
REMARK  138  A    between atoms: _348  and  _349
REMARK  139  A    between atoms: _351  and  _353
REMARK  140  A    between atoms: _353  and  _354
REMARK  141  A    between atoms: _353  and  _356
REMARK  142  A    between atoms: _356  and  _357
REMARK  143  A    between atoms: _362  and  _364
REMARK  144  A    between atoms: _364  and  _365
REMARK  145  A    between atoms: _364  and  _367
REMARK  146  A    between atoms: _367  and  _368
REMARK  147  A    between atoms: _371  and  _373
REMARK  148  A    between atoms: _373  and  _374
REMARK  149  A    between atoms: _373  and  _376
REMARK  150  A    between atoms: _376  and  _377
REMARK  151  A    between atoms: _382  and  _384
REMARK  152  A    between atoms: _384  and  _385
REMARK  153  A    between atoms: _384  and  _387
REMARK  154  A    between atoms: _387  and  _388
REMARK  155  A    between atoms: _398  and  _400
REMARK  156  A    between atoms: _400  and  _401
REMARK  157  A    between atoms: _400  and  _403
REMARK  158  A    between atoms: _403  and  _404
REMARK  159  A    between atoms: _410  and  _412
REMARK  160  A    between atoms: _412  and  _413
REMARK  161  A    between atoms: _412  and  _415
REMARK  162  A    between atoms: _415  and  _416
REMARK  163  A    between atoms: _419  and  _421
REMARK  164  A    between atoms: _421  and  _422
REMARK  165  A    between atoms: _421  and  _424
REMARK  166  A    between atoms: _424  and  _425
REMARK  167  A    between atoms: _425  and  _426
REMARK  168  A    between atoms: _426  and  _427
REMARK  169  A    between atoms: _436  and  _438
REMARK  170  A    between atoms: _438  and  _439
REMARK  171  A    between atoms: _438  and  _441
REMARK  172  A    between atoms: _441  and  _442
REMARK  173  A    between atoms: _447  and  _449
REMARK  174  A    between atoms: _449  and  _450
REMARK  175  A    between atoms: _449  and  _452
REMARK  176  A    between atoms: _452  and  _453
REMARK  177  A    between atoms: _453  and  _454
REMARK  178  A    between atoms: _454  and  _455
REMARK  179  A    between atoms: _464  and  _466
REMARK  180  A    between atoms: _466  and  _467
REMARK  181  A    between atoms: _470  and  _472
REMARK  182  A    between atoms: _472  and  _473
REMARK  183  A    between atoms: _475  and  _477
REMARK  184  A    between atoms: _477  and  _478
REMARK  185  A    between atoms: _477  and  _480
REMARK  186  A    between atoms: _480  and  _481
REMARK  187  A    between atoms: _491  and  _493
REMARK  188  A    between atoms: _493  and  _494
REMARK  189  A    between atoms: _493  and  _496
REMARK  190  A    between atoms: _496  and  _497
REMARK  191  A    between atoms: _498  and  _500
REMARK  192  A    between atoms: _500  and  _501
REMARK  193  A    between atoms: _504  and  _506
REMARK  194  A    between atoms: _506  and  _507
REMARK  195  A    between atoms: _506  and  _509
REMARK  196  A    between atoms: _509  and  _510
REMARK  197  A    between atoms: _513  and  _515
REMARK  198  A    between atoms: _515  and  _516
REMARK  199  A    between atoms: _515  and  _518
REMARK  200  A    between atoms: _518  and  _519
REMARK  201  A    between atoms: _524  and  _525
REMARK  202  A    between atoms: _527  and  _529
REMARK  203  A    between atoms: _529  and  _530
REMARK  204  A    between atoms: _529  and  _532
REMARK  205  A    between atoms: _532  and  _533
REMARK  206  A    between atoms: _535  and  _537
REMARK  207  A    between atoms: _537  and  _538
REMARK  208  A    between atoms: _537  and  _540
REMARK  209  A    between atoms: _540  and  _541
REMARK  210  A    between atoms: _547  and  _549
REMARK  211  A    between atoms: _549  and  _550
REMARK  212  A    between atoms: _549  and  _552
REMARK  213  A    between atoms: _552  and  _553
REMARK  214  A    between atoms: _556  and  _558
REMARK  215  A    between atoms: _558  and  _559
REMARK  216  A    between atoms: _558  and  _561
REMARK  217  A    between atoms: _561  and  _562
REMARK  218  A    between atoms: _562  and  _563
REMARK  219  A    between atoms: _565  and  _567
REMARK  220  A    between atoms: _567  and  _568
REMARK  221  A    between atoms: _567  and  _570
REMARK  222  A    between atoms: _570  and  _571
REMARK  223  A    between atoms: _573  and  _575
REMARK  224  A    between atoms: _575  and  _576
REMARK  225  A    between atoms: _575  and  _578
REMARK  226  A    between atoms: _578  and  _579
REMARK  227  A    between atoms: _581  and  _583
REMARK  228  A    between atoms: _583  and  _584
REMARK  229  A    between atoms: _583  and  _586
REMARK  230  A    between atoms: _586  and  _587
REMARK  231  A    between atoms: _592  and  _594
REMARK  232  A    between atoms: _594  and  _595
REMARK  233  A    between atoms: _594  and  _597
REMARK  234  A    between atoms: _597  and  _598
REMARK  235  A    between atoms: _603  and  _605
REMARK  236  A    between atoms: _605  and  _606
REMARK  237  A    between atoms: _605  and  _608
REMARK  238  A    between atoms: _608  and  _609
REMARK  239  A    between atoms: _612  and  _614
REMARK  240  A    between atoms: _614  and  _615
REMARK  241  A    between atoms: _618  and  _620
REMARK  242  A    between atoms: _620  and  _621
REMARK  243  A    between atoms: _620  and  _623
REMARK  244  A    between atoms: _623  and  _624
REMARK  245  A    between atoms: _629  and  _631
REMARK  246  A    between atoms: _631  and  _632
REMARK  247  A    between atoms: _631  and  _634
REMARK  248  A    between atoms: _634  and  _635
REMARK  249  A    between atoms: _640  and  _641
REMARK  250  A    between atoms: _643  and  _645
REMARK  251  A    between atoms: _645  and  _646
REMARK  252  A    between atoms: _645  and  _648
REMARK  253  A    between atoms: _648  and  _649
REMARK  254  A    between atoms: _654  and  _655
REMARK  255  A    between atoms: _657  and  _659
REMARK  256  A    between atoms: _659  and  _660
REMARK  257  A    between atoms: _659  and  _662
REMARK  258  A    between atoms: _665  and  _667
REMARK  259  A    between atoms: _667  and  _668
REMARK  260  A    between atoms: _667  and  _670
REMARK  261  A    between atoms: _670  and  _671
REMARK  262  A    between atoms: _676  and  _678
REMARK  263  A    between atoms: _678  and  _679
REMARK  264  A    between atoms: _682  and  _684
REMARK  265  A    between atoms: _684  and  _685
REMARK  266  A    between atoms: _684  and  _687
REMARK  267  A    between atoms: _687  and  _688
REMARK  268  A    between atoms: _688  and  _689
REMARK  269  A    between atoms: _689  and  _690
REMARK  270  A    between atoms: _699  and  _701
REMARK  271  A    between atoms: _701  and  _702
REMARK  272  A    between atoms: _701  and  _704
REMARK  273  A    between atoms: _704  and  _705
REMARK  274  A    between atoms: _708  and  _710
REMARK  275  A    between atoms: _710  and  _711
REMARK  276  A    between atoms: _710  and  _713
REMARK  277  A    between atoms: _713  and  _714
REMARK  278  A    between atoms: _717  and  _719
REMARK  279  A    between atoms: _719  and  _720
REMARK  280  A    between atoms: _719  and  _722
REMARK  281  A    between atoms: _722  and  _723
REMARK                            x       y       z     vdW  Elec       q    Type
REMARK                         _______ _______ _______ _____ _____    ______ ____
ROOT
ATOM      1  O   HOH     1       8.667  13.243   7.304  0.00  0.00    +0.000 OA
ENDROOT
TORSDOF 0
REMARK  Name = ../refined-set-2016/1qka/1qka_pocket.pdb
REMARK  281 active torsions:
REMARK  status: ('A' for Active; 'I' for Inactive)
REMARK    1  A    between atoms: _1  and  _3
REMARK    2  A    between atoms: _3  and  _4
REMARK    3  A    between atoms: _3  and  _6
REMARK    4  A    between atoms: _6  and  _7
REMARK    5  A    between atoms: _12  and  _14
REMARK    6  A    between atoms: _14  and  _15
REMARK    7  A    between atoms: _17  and  _19
REMARK    8  A    between atoms: _19  and  _20
REMARK    9  A    between atoms: _19  and  _22
REMARK   10  A    between atoms: _22  and  _23
REMARK   11  A    between atoms: _25  and  _27
REMARK   12  A    between atoms: _27  and  _28
REMARK   13  A    between atoms: _27  and  _30
REMARK   14  A    between atoms: _30  and  _31
REMARK   15  A    between atoms: _31  and  _32
REMARK   16  A    between atoms: _37  and  _39
REMARK   17  A    between atoms: _39  and  _40
REMARK   18  A    between atoms: _39  and  _42
REMARK   19  A    between atoms: _42  and  _43
REMARK   20  A    between atoms: _46  and  _48
REMARK   21  A    between atoms: _48  and  _49
REMARK   22  A    between atoms: _48  and  _51
REMARK   23  A    between atoms: _51  and  _52
REMARK   24  A    between atoms: _52  and  _53
REMARK   25  A    between atoms: _56  and  _58
REMARK   26  A    between atoms: _58  and  _59
REMARK   27  A    between atoms: _61  and  _63
REMARK   28  A    between atoms: _63  and  _64
REMARK   29  A    between atoms: _63  and  _66
REMARK   30  A    between atoms: _70  and  _71
REMARK   31  A    between atoms: _76  and  _78
REMARK   32  A    between atoms: _78  and  _79
REMARK   33  A    between atoms: _78  and  _81
REMARK   34  A    between atoms: _81  and  _82
REMARK   35  A    between atoms: _82  and  _83
REMARK   36  A    between atoms: _86  and  _88
REMARK   37  A    between atoms: _88  and  _89
REMARK   38  A    between atoms: _88  and  _91
REMARK   39  A    between atoms: _91  and  _92
REMARK   40  A    between atoms: _94  and  _96
REMARK   41  A    between atoms: _96  and  _97
REMARK   42  A    between atoms: _96  and  _99
REMARK   43  A    between atoms: _99  and  _100
REMARK   44  A    between atoms: _105  and  _107
REMARK   45  A    between atoms: _107  and  _108
REMARK   46  A    between atoms: _107  and  _110
REMARK   47  A    between atoms: _110  and  _111
REMARK   48  A    between atoms: _111  and  _112
REMARK   49  A    between atoms: _112  and  _113
REMARK   50  A    between atoms: _123  and  _124
REMARK   51  A    between atoms: _129  and  _131
REMARK   52  A    between atoms: _131  and  _132
REMARK   53  A    between atoms: _131  and  _134
REMARK   54  A    between atoms: _134  and  _135
REMARK   55  A    between atoms: _140  and  _141
REMARK   56  A    between atoms: _143  and  _145
REMARK   57  A    between atoms: _145  and  _146
REMARK   58  A    between atoms: _145  and  _148
REMARK   59  A    between atoms: _148  and  _149
REMARK   60  A    between atoms: _154  and  _155
REMARK   61  A    between atoms: _157  and  _159
REMARK   62  A    between atoms: _159  and  _160
REMARK   63  A    between atoms: _159  and  _162
REMARK   64  A    between atoms: _162  and  _163
REMARK   65  A    between atoms: _168  and  _169
REMARK   66  A    between atoms: _171  and  _173
REMARK   67  A    between atoms: _173  and  _174
REMARK   68  A    between atoms: _173  and  _176
REMARK   69  A    between atoms: _179  and  _181
REMARK   70  A    between atoms: _181  and  _182
REMARK   71  A    between atoms: _181  and  _184
REMARK   72  A    between atoms: _184  and  _185
REMARK   73  A    between atoms: _191  and  _192
REMARK   74  A    between atoms: _197  and  _199
REMARK   75  A    between atoms: _199  and  _200
REMARK   76  A    between atoms: _199  and  _202
REMARK   77  A    between atoms: _202  and  _203
REMARK   78  A    between atoms: _205  and  _207
REMARK   79  A    between atoms: _207  and  _208
REMARK   80  A    between atoms: _207  and  _210
REMARK   81  A    between atoms: _210  and  _211
REMARK   82  A    between atoms: _211  and  _212
REMARK   83  A    between atoms: _215  and  _217
REMARK   84  A    between atoms: _217  and  _218
REMARK   85  A    between atoms: _217  and  _220
REMARK   86  A    between atoms: _220  and  _221
REMARK   87  A    between atoms: _226  and  _227
REMARK   88  A    between atoms: _229  and  _231
REMARK   89  A    between atoms: _231  and  _232
REMARK   90  A    between atoms: _231  and  _234
REMARK   91  A    between atoms: _234  and  _235
REMARK   92  A    between atoms: _240  and  _242
REMARK   93  A    between atoms: _242  and  _243
REMARK   94  A    between atoms: _242  and  _245
REMARK   95  A    between atoms: _245  and  _246
REMARK   96  A    between atoms: _251  and  _253
REMARK   97  A    between atoms: _253  and  _254
REMARK   98  A    between atoms: _253  and  _256
REMARK   99  A    between atoms: _256  and  _257
REMARK  100  A    between atoms: _257  and  _258
REMARK  101  A    between atoms: _260  and  _262
REMARK  102  A    between atoms: _262  and  _263
REMARK  103  A    between atoms: _262  and  _265
REMARK  104  A    between atoms: _265  and  _266
REMARK  105  A    between atoms: _271  and  _272
REMARK  106  A    between atoms: _274  and  _276
REMARK  107  A    between atoms: _276  and  _277
REMARK  108  A    between atoms: _276  and  _279
REMARK  109  A    between atoms: _279  and  _280
REMARK  110  A    between atoms: _283  and  _285
REMARK  111  A    between atoms: _285  and  _286
REMARK  112  A    between atoms: _285  and  _288
REMARK  113  A    between atoms: _288  and  _289
REMARK  114  A    between atoms: _289  and  _497
REMARK  115  A    between atoms: _290  and  _292
REMARK  116  A    between atoms: _292  and  _293
REMARK  117  A    between atoms: _292  and  _295
REMARK  118  A    between atoms: _295  and  _296
REMARK  119  A    between atoms: _299  and  _301
REMARK  120  A    between atoms: _301  and  _302
REMARK  121  A    between atoms: _301  and  _304
REMARK  122  A    between atoms: _304  and  _305
REMARK  123  A    between atoms: _310  and  _311
REMARK  124  A    between atoms: _313  and  _315
REMARK  125  A    between atoms: _315  and  _316
REMARK  126  A    between atoms: _315  and  _318
REMARK  127  A    between atoms: _318  and  _319
REMARK  128  A    between atoms: _324  and  _325
REMARK  129  A    between atoms: _327  and  _329
REMARK  130  A    between atoms: _329  and  _330
REMARK  131  A    between atoms: _329  and  _332
REMARK  132  A    between atoms: _332  and  _333
REMARK  133  A    between atoms: _333  and  _334
REMARK  134  A    between atoms: _337  and  _339
REMARK  135  A    between atoms: _339  and  _340
REMARK  136  A    between atoms: _339  and  _342
REMARK  137  A    between atoms: _342  and  _343
REMARK  138  A    between atoms: _348  and  _349
REMARK  139  A    between atoms: _351  and  _353
REMARK  140  A    between atoms: _353  and  _354
REMARK  141  A    between atoms: _353  and  _356
REMARK  142  A    between atoms: _356  and  _357
REMARK  143  A    between atoms: _362  and  _364
REMARK  144  A    between atoms: _364  and  _365
REMARK  145  A    between atoms: _364  and  _367
REMARK  146  A    between atoms: _367  and  _368
REMARK  147  A    between atoms: _371  and  _373
REMARK  148  A    between atoms: _373  and  _374
REMARK  149  A    between atoms: _373  and  _376
REMARK  150  A    between atoms: _376  and  _377
REMARK  151  A    between atoms: _382  and  _384
REMARK  152  A    between atoms: _384  and  _385
REMARK  153  A    between atoms: _384  and  _387
REMARK  154  A    between atoms: _387  and  _388
REMARK  155  A    between atoms: _398  and  _400
REMARK  156  A    between atoms: _400  and  _401
REMARK  157  A    between atoms: _400  and  _403
REMARK  158  A    between atoms: _403  and  _404
REMARK  159  A    between atoms: _410  and  _412
REMARK  160  A    between atoms: _412  and  _413
REMARK  161  A    between atoms: _412  and  _415
REMARK  162  A    between atoms: _415  and  _416
REMARK  163  A    between atoms: _419  and  _421
REMARK  164  A    between atoms: _421  and  _422
REMARK  165  A    between atoms: _421  and  _424
REMARK  166  A    between atoms: _424  and  _425
REMARK  167  A    between atoms: _425  and  _426
REMARK  168  A    between atoms: _426  and  _427
REMARK  169  A    between atoms: _436  and  _438
REMARK  170  A    between atoms: _438  and  _439
REMARK  171  A    between atoms: _438  and  _441
REMARK  172  A    between atoms: _441  and  _442
REMARK  173  A    between atoms: _447  and  _449
REMARK  174  A    between atoms: _449  and  _450
REMARK  175  A    between atoms: _449  and  _452
REMARK  176  A    between atoms: _452  and  _453
REMARK  177  A    between atoms: _453  and  _454
REMARK  178  A    between atoms: _454  and  _455
REMARK  179  A    between atoms: _464  and  _466
REMARK  180  A    between atoms: _466  and  _467
REMARK  181  A    between atoms: _470  and  _472
REMARK  182  A    between atoms: _472  and  _473
REMARK  183  A    between atoms: _475  and  _477
REMARK  184  A    between atoms: _477  and  _478
REMARK  185  A    between atoms: _477  and  _480
REMARK  186  A    between atoms: _480  and  _481
REMARK  187  A    between atoms: _491  and  _493
REMARK  188  A    between atoms: _493  and  _494
REMARK  189  A    between atoms: _493  and  _496
REMARK  190  A    between atoms: _496  and  _497
REMARK  191  A    between atoms: _498  and  _500
REMARK  192  A    between atoms: _500  and  _501
REMARK  193  A    between atoms: _504  and  _506
REMARK  194  A    between atoms: _506  and  _507
REMARK  195  A    between atoms: _506  and  _509
REMARK  196  A    between atoms: _509  and  _510
REMARK  197  A    between atoms: _513  and  _515
REMARK  198  A    between atoms: _515  and  _516
REMARK  199  A    between atoms: _515  and  _518
REMARK  200  A    between atoms: _518  and  _519
REMARK  201  A    between atoms: _524  and  _525
REMARK  202  A    between atoms: _527  and  _529
REMARK  203  A    between atoms: _529  and  _530
REMARK  204  A    between atoms: _529  and  _532
REMARK  205  A    between atoms: _532  and  _533
REMARK  206  A    between atoms: _535  and  _537
REMARK  207  A    between atoms: _537  and  _538
REMARK  208  A    between atoms: _537  and  _540
REMARK  209  A    between atoms: _540  and  _541
REMARK  210  A    between atoms: _547  and  _549
REMARK  211  A    between atoms: _549  and  _550
REMARK  212  A    between atoms: _549  and  _552
REMARK  213  A    between atoms: _552  and  _553
REMARK  214  A    between atoms: _556  and  _558
REMARK  215  A    between atoms: _558  and  _559
REMARK  216  A    between atoms: _558  and  _561
REMARK  217  A    between atoms: _561  and  _562
REMARK  218  A    between atoms: _562  and  _563
REMARK  219  A    between atoms: _565  and  _567
REMARK  220  A    between atoms: _567  and  _568
REMARK  221  A    between atoms: _567  and  _570
REMARK  222  A    between atoms: _570  and  _571
REMARK  223  A    between atoms: _573  and  _575
REMARK  224  A    between atoms: _575  and  _576
REMARK  225  A    between atoms: _575  and  _578
REMARK  226  A    between atoms: _578  and  _579
REMARK  227  A    between atoms: _581  and  _583
REMARK  228  A    between atoms: _583  and  _584
REMARK  229  A    between atoms: _583  and  _586
REMARK  230  A    between atoms: _586  and  _587
REMARK  231  A    between atoms: _592  and  _594
REMARK  232  A    between atoms: _594  and  _595
REMARK  233  A    between atoms: _594  and  _597
REMARK  234  A    between atoms: _597  and  _598
REMARK  235  A    between atoms: _603  and  _605
REMARK  236  A    between atoms: _605  and  _606
REMARK  237  A    between atoms: _605  and  _608
REMARK  238  A    between atoms: _608  and  _609
REMARK  239  A    between atoms: _612  and  _614
REMARK  240  A    between atoms: _614  and  _615
REMARK  241  A    between atoms: _618  and  _620
REMARK  242  A    between atoms: _620  and  _621
REMARK  243  A    between atoms: _620  and  _623
REMARK  244  A    between atoms: _623  and  _624
REMARK  245  A    between atoms: _629  and  _631
REMARK  246  A    between atoms: _631  and  _632
REMARK  247  A    between atoms: _631  and  _634
REMARK  248  A    between atoms: _634  and  _635
REMARK  249  A    between atoms: _640  and  _641
REMARK  250  A    between atoms: _643  and  _645
REMARK  251  A    between atoms: _645  and  _646
REMARK  252  A    between atoms: _645  and  _648
REMARK  253  A    between atoms: _648  and  _649
REMARK  254  A    between atoms: _654  and  _655
REMARK  255  A    between atoms: _657  and  _659
REMARK  256  A    between atoms: _659  and  _660
REMARK  257  A    between atoms: _659  and  _662
REMARK  258  A    between atoms: _665  and  _667
REMARK  259  A    between atoms: _667  and  _668
REMARK  260  A    between atoms: _667  and  _670
REMARK  261  A    between atoms: _670  and  _671
REMARK  262  A    between atoms: _676  and  _678
REMARK  263  A    between atoms: _678  and  _679
REMARK  264  A    between atoms: _682  and  _684
REMARK  265  A    between atoms: _684  and  _685
REMARK  266  A    between atoms: _684  and  _687
REMARK  267  A    between atoms: _687  and  _688
REMARK  268  A    between atoms: _688  and  _689
REMARK  269  A    between atoms: _689  and  _690
REMARK  270  A    between atoms: _699  and  _701
REMARK  271  A    between atoms: _701  and  _702
REMARK  272  A    between atoms: _701  and  _704
REMARK  273  A    between atoms: _704  and  _705
REMARK  274  A    between atoms: _708  and  _710
REMARK  275  A    between atoms: _710  and  _711
REMARK  276  A    between atoms: _710  and  _713
REMARK  277  A    between atoms: _713  and  _714
REMARK  278  A    between atoms: _717  and  _719
REMARK  279  A    between atoms: _719  and  _720
REMARK  280  A    between atoms: _719  and  _722
REMARK  281  A    between atoms: _722  and  _723
REMARK                            x       y       z     vdW  Elec       q    Type
REMARK                         _______ _______ _______ _____ _____    ______ ____
ROOT
ATOM      1  O   HOH     1      10.178  15.816   4.934  0.00  0.00    +0.000 OA
ENDROOT
TORSDOF 0
REMARK  Name = ../refined-set-2016/1qka/1qka_pocket.pdb
REMARK  281 active torsions:
REMARK  status: ('A' for Active; 'I' for Inactive)
REMARK    1  A    between atoms: _1  and  _3
REMARK    2  A    between atoms: _3  and  _4
REMARK    3  A    between atoms: _3  and  _6
REMARK    4  A    between atoms: _6  and  _7
REMARK    5  A    between atoms: _12  and  _14
REMARK    6  A    between atoms: _14  and  _15
REMARK    7  A    between atoms: _17  and  _19
REMARK    8  A    between atoms: _19  and  _20
REMARK    9  A    between atoms: _19  and  _22
REMARK   10  A    between atoms: _22  and  _23
REMARK   11  A    between atoms: _25  and  _27
REMARK   12  A    between atoms: _27  and  _28
REMARK   13  A    between atoms: _27  and  _30
REMARK   14  A    between atoms: _30  and  _31
REMARK   15  A    between atoms: _31  and  _32
REMARK   16  A    between atoms: _37  and  _39
REMARK   17  A    between atoms: _39  and  _40
REMARK   18  A    between atoms: _39  and  _42
REMARK   19  A    between atoms: _42  and  _43
REMARK   20  A    between atoms: _46  and  _48
REMARK   21  A    between atoms: _48  and  _49
REMARK   22  A    between atoms: _48  and  _51
REMARK   23  A    between atoms: _51  and  _52
REMARK   24  A    between atoms: _52  and  _53
REMARK   25  A    between atoms: _56  and  _58
REMARK   26  A    between atoms: _58  and  _59
REMARK   27  A    between atoms: _61  and  _63
REMARK   28  A    between atoms: _63  and  _64
REMARK   29  A    between atoms: _63  and  _66
REMARK   30  A    between atoms: _70  and  _71
REMARK   31  A    between atoms: _76  and  _78
REMARK   32  A    between atoms: _78  and  _79
REMARK   33  A    between atoms: _78  and  _81
REMARK   34  A    between atoms: _81  and  _82
REMARK   35  A    between atoms: _82  and  _83
REMARK   36  A    between atoms: _86  and  _88
REMARK   37  A    between atoms: _88  and  _89
REMARK   38  A    between atoms: _88  and  _91
REMARK   39  A    between atoms: _91  and  _92
REMARK   40  A    between atoms: _94  and  _96
REMARK   41  A    between atoms: _96  and  _97
REMARK   42  A    between atoms: _96  and  _99
REMARK   43  A    between atoms: _99  and  _100
REMARK   44  A    between atoms: _105  and  _107
REMARK   45  A    between atoms: _107  and  _108
REMARK   46  A    between atoms: _107  and  _110
REMARK   47  A    between atoms: _110  and  _111
REMARK   48  A    between atoms: _111  and  _112
REMARK   49  A    between atoms: _112  and  _113
REMARK   50  A    between atoms: _123  and  _124
REMARK   51  A    between atoms: _129  and  _131
REMARK   52  A    between atoms: _131  and  _132
REMARK   53  A    between atoms: _131  and  _134
REMARK   54  A    between atoms: _134  and  _135
REMARK   55  A    between atoms: _140  and  _141
REMARK   56  A    between atoms: _143  and  _145
REMARK   57  A    between atoms: _145  and  _146
REMARK   58  A    between atoms: _145  and  _148
REMARK   59  A    between atoms: _148  and  _149
REMARK   60  A    between atoms: _154  and  _155
REMARK   61  A    between atoms: _157  and  _159
REMARK   62  A    between atoms: _159  and  _160
REMARK   63  A    between atoms: _159  and  _162
REMARK   64  A    between atoms: _162  and  _163
REMARK   65  A    between atoms: _168  and  _169
REMARK   66  A    between atoms: _171  and  _173
REMARK   67  A    between atoms: _173  and  _174
REMARK   68  A    between atoms: _173  and  _176
REMARK   69  A    between atoms: _179  and  _181
REMARK   70  A    between atoms: _181  and  _182
REMARK   71  A    between atoms: _181  and  _184
REMARK   72  A    between atoms: _184  and  _185
REMARK   73  A    between atoms: _191  and  _192
REMARK   74  A    between atoms: _197  and  _199
REMARK   75  A    between atoms: _199  and  _200
REMARK   76  A    between atoms: _199  and  _202
REMARK   77  A    between atoms: _202  and  _203
REMARK   78  A    between atoms: _205  and  _207
REMARK   79  A    between atoms: _207  and  _208
REMARK   80  A    between atoms: _207  and  _210
REMARK   81  A    between atoms: _210  and  _211
REMARK   82  A    between atoms: _211  and  _212
REMARK   83  A    between atoms: _215  and  _217
REMARK   84  A    between atoms: _217  and  _218
REMARK   85  A    between atoms: _217  and  _220
REMARK   86  A    between atoms: _220  and  _221
REMARK   87  A    between atoms: _226  and  _227
REMARK   88  A    between atoms: _229  and  _231
REMARK   89  A    between atoms: _231  and  _232
REMARK   90  A    between atoms: _231  and  _234
REMARK   91  A    between atoms: _234  and  _235
REMARK   92  A    between atoms: _240  and  _242
REMARK   93  A    between atoms: _242  and  _243
REMARK   94  A    between atoms: _242  and  _245
REMARK   95  A    between atoms: _245  and  _246
REMARK   96  A    between atoms: _251  and  _253
REMARK   97  A    between atoms: _253  and  _254
REMARK   98  A    between atoms: _253  and  _256
REMARK   99  A    between atoms: _256  and  _257
REMARK  100  A    between atoms: _257  and  _258
REMARK  101  A    between atoms: _260  and  _262
REMARK  102  A    between atoms: _262  and  _263
REMARK  103  A    between atoms: _262  and  _265
REMARK  104  A    between atoms: _265  and  _266
REMARK  105  A    between atoms: _271  and  _272
REMARK  106  A    between atoms: _274  and  _276
REMARK  107  A    between atoms: _276  and  _277
REMARK  108  A    between atoms: _276  and  _279
REMARK  109  A    between atoms: _279  and  _280
REMARK  110  A    between atoms: _283  and  _285
REMARK  111  A    between atoms: _285  and  _286
REMARK  112  A    between atoms: _285  and  _288
REMARK  113  A    between atoms: _288  and  _289
REMARK  114  A    between atoms: _289  and  _497
REMARK  115  A    between atoms: _290  and  _292
REMARK  116  A    between atoms: _292  and  _293
REMARK  117  A    between atoms: _292  and  _295
REMARK  118  A    between atoms: _295  and  _296
REMARK  119  A    between atoms: _299  and  _301
REMARK  120  A    between atoms: _301  and  _302
REMARK  121  A    between atoms: _301  and  _304
REMARK  122  A    between atoms: _304  and  _305
REMARK  123  A    between atoms: _310  and  _311
REMARK  124  A    between atoms: _313  and  _315
REMARK  125  A    between atoms: _315  and  _316
REMARK  126  A    between atoms: _315  and  _318
REMARK  127  A    between atoms: _318  and  _319
REMARK  128  A    between atoms: _324  and  _325
REMARK  129  A    between atoms: _327  and  _329
REMARK  130  A    between atoms: _329  and  _330
REMARK  131  A    between atoms: _329  and  _332
REMARK  132  A    between atoms: _332  and  _333
REMARK  133  A    between atoms: _333  and  _334
REMARK  134  A    between atoms: _337  and  _339
REMARK  135  A    between atoms: _339  and  _340
REMARK  136  A    between atoms: _339  and  _342
REMARK  137  A    between atoms: _342  and  _343
REMARK  138  A    between atoms: _348  and  _349
REMARK  139  A    between atoms: _351  and  _353
REMARK  140  A    between atoms: _353  and  _354
REMARK  141  A    between atoms: _353  and  _356
REMARK  142  A    between atoms: _356  and  _357
REMARK  143  A    between atoms: _362  and  _364
REMARK  144  A    between atoms: _364  and  _365
REMARK  145  A    between atoms: _364  and  _367
REMARK  146  A    between atoms: _367  and  _368
REMARK  147  A    between atoms: _371  and  _373
REMARK  148  A    between atoms: _373  and  _374
REMARK  149  A    between atoms: _373  and  _376
REMARK  150  A    between atoms: _376  and  _377
REMARK  151  A    between atoms: _382  and  _384
REMARK  152  A    between atoms: _384  and  _385
REMARK  153  A    between atoms: _384  and  _387
REMARK  154  A    between atoms: _387  and  _388
REMARK  155  A    between atoms: _398  and  _400
REMARK  156  A    between atoms: _400  and  _401
REMARK  157  A    between atoms: _400  and  _403
REMARK  158  A    between atoms: _403  and  _404
REMARK  159  A    between atoms: _410  and  _412
REMARK  160  A    between atoms: _412  and  _413
REMARK  161  A    between atoms: _412  and  _415
REMARK  162  A    between atoms: _415  and  _416
REMARK  163  A    between atoms: _419  and  _421
REMARK  164  A    between atoms: _421  and  _422
REMARK  165  A    between atoms: _421  and  _424
REMARK  166  A    between atoms: _424  and  _425
REMARK  167  A    between atoms: _425  and  _426
REMARK  168  A    between atoms: _426  and  _427
REMARK  169  A    between atoms: _436  and  _438
REMARK  170  A    between atoms: _438  and  _439
REMARK  171  A    between atoms: _438  and  _441
REMARK  172  A    between atoms: _441  and  _442
REMARK  173  A    between atoms: _447  and  _449
REMARK  174  A    between atoms: _449  and  _450
REMARK  175  A    between atoms: _449  and  _452
REMARK  176  A    between atoms: _452  and  _453
REMARK  177  A    between atoms: _453  and  _454
REMARK  178  A    between atoms: _454  and  _455
REMARK  179  A    between atoms: _464  and  _466
REMARK  180  A    between atoms: _466  and  _467
REMARK  181  A    between atoms: _470  and  _472
REMARK  182  A    between atoms: _472  and  _473
REMARK  183  A    between atoms: _475  and  _477
REMARK  184  A    between atoms: _477  and  _478
REMARK  185  A    between atoms: _477  and  _480
REMARK  186  A    between atoms: _480  and  _481
REMARK  187  A    between atoms: _491  and  _493
REMARK  188  A    between atoms: _493  and  _494
REMARK  189  A    between atoms: _493  and  _496
REMARK  190  A    between atoms: _496  and  _497
REMARK  191  A    between atoms: _498  and  _500
REMARK  192  A    between atoms: _500  and  _501
REMARK  193  A    between atoms: _504  and  _506
REMARK  194  A    between atoms: _506  and  _507
REMARK  195  A    between atoms: _506  and  _509
REMARK  196  A    between atoms: _509  and  _510
REMARK  197  A    between atoms: _513  and  _515
REMARK  198  A    between atoms: _515  and  _516
REMARK  199  A    between atoms: _515  and  _518
REMARK  200  A    between atoms: _518  and  _519
REMARK  201  A    between atoms: _524  and  _525
REMARK  202  A    between atoms: _527  and  _529
REMARK  203  A    between atoms: _529  and  _530
REMARK  204  A    between atoms: _529  and  _532
REMARK  205  A    between atoms: _532  and  _533
REMARK  206  A    between atoms: _535  and  _537
REMARK  207  A    between atoms: _537  and  _538
REMARK  208  A    between atoms: _537  and  _540
REMARK  209  A    between atoms: _540  and  _541
REMARK  210  A    between atoms: _547  and  _549
REMARK  211  A    between atoms: _549  and  _550
REMARK  212  A    between atoms: _549  and  _552
REMARK  213  A    between atoms: _552  and  _553
REMARK  214  A    between atoms: _556  and  _558
REMARK  215  A    between atoms: _558  and  _559
REMARK  216  A    between atoms: _558  and  _561
REMARK  217  A    between atoms: _561  and  _562
REMARK  218  A    between atoms: _562  and  _563
REMARK  219  A    between atoms: _565  and  _567
REMARK  220  A    between atoms: _567  and  _568
REMARK  221  A    between atoms: _567  and  _570
REMARK  222  A    between atoms: _570  and  _571
REMARK  223  A    between atoms: _573  and  _575
REMARK  224  A    between atoms: _575  and  _576
REMARK  225  A    between atoms: _575  and  _578
REMARK  226  A    between atoms: _578  and  _579
REMARK  227  A    between atoms: _581  and  _583
REMARK  228  A    between atoms: _583  and  _584
REMARK  229  A    between atoms: _583  and  _586
REMARK  230  A    between atoms: _586  and  _587
REMARK  231  A    between atoms: _592  and  _594
REMARK  232  A    between atoms: _594  and  _595
REMARK  233  A    between atoms: _594  and  _597
REMARK  234  A    between atoms: _597  and  _598
REMARK  235  A    between atoms: _603  and  _605
REMARK  236  A    between atoms: _605  and  _606
REMARK  237  A    between atoms: _605  and  _608
REMARK  238  A    between atoms: _608  and  _609
REMARK  239  A    between atoms: _612  and  _614
REMARK  240  A    between atoms: _614  and  _615
REMARK  241  A    between atoms: _618  and  _620
REMARK  242  A    between atoms: _620  and  _621
REMARK  243  A    between atoms: _620  and  _623
REMARK  244  A    between atoms: _623  and  _624
REMARK  245  A    between atoms: _629  and  _631
REMARK  246  A    between atoms: _631  and  _632
REMARK  247  A    between atoms: _631  and  _634
REMARK  248  A    between atoms: _634  and  _635
REMARK  249  A    between atoms: _640  and  _641
REMARK  250  A    between atoms: _643  and  _645
REMARK  251  A    between atoms: _645  and  _646
REMARK  252  A    between atoms: _645  and  _648
REMARK  253  A    between atoms: _648  and  _649
REMARK  254  A    between atoms: _654  and  _655
REMARK  255  A    between atoms: _657  and  _659
REMARK  256  A    between atoms: _659  and  _660
REMARK  257  A    between atoms: _659  and  _662
REMARK  258  A    between atoms: _665  and  _667
REMARK  259  A    between atoms: _667  and  _668
REMARK  260  A    between atoms: _667  and  _670
REMARK  261  A    between atoms: _670  and  _671
REMARK  262  A    between atoms: _676  and  _678
REMARK  263  A    between atoms: _678  and  _679
REMARK  264  A    between atoms: _682  and  _684
REMARK  265  A    between atoms: _684  and  _685
REMARK  266  A    between atoms: _684  and  _687
REMARK  267  A    between atoms: _687  and  _688
REMARK  268  A    between atoms: _688  and  _689
REMARK  269  A    between atoms: _689  and  _690
REMARK  270  A    between atoms: _699  and  _701
REMARK  271  A    between atoms: _701  and  _702
REMARK  272  A    between atoms: _701  and  _704
REMARK  273  A    between atoms: _704  and  _705
REMARK  274  A    between atoms: _708  and  _710
REMARK  275  A    between atoms: _710  and  _711
REMARK  276  A    between atoms: _710  and  _713
REMARK  277  A    between atoms: _713  and  _714
REMARK  278  A    between atoms: _717  and  _719
REMARK  279  A    between atoms: _719  and  _720
REMARK  280  A    between atoms: _719  and  _722
REMARK  281  A    between atoms: _722  and  _723
REMARK                            x       y       z     vdW  Elec       q    Type
REMARK                         _______ _______ _______ _____ _____    ______ ____
ROOT
ATOM      1  O   HOH     1      -8.155  23.827   9.755  0.00  0.00    +0.000 OA
ENDROOT
TORSDOF 0
REMARK  Name = ../refined-set-2016/1qka/1qka_pocket.pdb
REMARK  281 active torsions:
REMARK  status: ('A' for Active; 'I' for Inactive)
REMARK    1  A    between atoms: _1  and  _3
REMARK    2  A    between atoms: _3  and  _4
REMARK    3  A    between atoms: _3  and  _6
REMARK    4  A    between atoms: _6  and  _7
REMARK    5  A    between atoms: _12  and  _14
REMARK    6  A    between atoms: _14  and  _15
REMARK    7  A    between atoms: _17  and  _19
REMARK    8  A    between atoms: _19  and  _20
REMARK    9  A    between atoms: _19  and  _22
REMARK   10  A    between atoms: _22  and  _23
REMARK   11  A    between atoms: _25  and  _27
REMARK   12  A    between atoms: _27  and  _28
REMARK   13  A    between atoms: _27  and  _30
REMARK   14  A    between atoms: _30  and  _31
REMARK   15  A    between atoms: _31  and  _32
REMARK   16  A    between atoms: _37  and  _39
REMARK   17  A    between atoms: _39  and  _40
REMARK   18  A    between atoms: _39  and  _42
REMARK   19  A    between atoms: _42  and  _43
REMARK   20  A    between atoms: _46  and  _48
REMARK   21  A    between atoms: _48  and  _49
REMARK   22  A    between atoms: _48  and  _51
REMARK   23  A    between atoms: _51  and  _52
REMARK   24  A    between atoms: _52  and  _53
REMARK   25  A    between atoms: _56  and  _58
REMARK   26  A    between atoms: _58  and  _59
REMARK   27  A    between atoms: _61  and  _63
REMARK   28  A    between atoms: _63  and  _64
REMARK   29  A    between atoms: _63  and  _66
REMARK   30  A    between atoms: _70  and  _71
REMARK   31  A    between atoms: _76  and  _78
REMARK   32  A    between atoms: _78  and  _79
REMARK   33  A    between atoms: _78  and  _81
REMARK   34  A    between atoms: _81  and  _82
REMARK   35  A    between atoms: _82  and  _83
REMARK   36  A    between atoms: _86  and  _88
REMARK   37  A    between atoms: _88  and  _89
REMARK   38  A    between atoms: _88  and  _91
REMARK   39  A    between atoms: _91  and  _92
REMARK   40  A    between atoms: _94  and  _96
REMARK   41  A    between atoms: _96  and  _97
REMARK   42  A    between atoms: _96  and  _99
REMARK   43  A    between atoms: _99  and  _100
REMARK   44  A    between atoms: _105  and  _107
REMARK   45  A    between atoms: _107  and  _108
REMARK   46  A    between atoms: _107  and  _110
REMARK   47  A    between atoms: _110  and  _111
REMARK   48  A    between atoms: _111  and  _112
REMARK   49  A    between atoms: _112  and  _113
REMARK   50  A    between atoms: _123  and  _124
REMARK   51  A    between atoms: _129  and  _131
REMARK   52  A    between atoms: _131  and  _132
REMARK   53  A    between atoms: _131  and  _134
REMARK   54  A    between atoms: _134  and  _135
REMARK   55  A    between atoms: _140  and  _141
REMARK   56  A    between atoms: _143  and  _145
REMARK   57  A    between atoms: _145  and  _146
REMARK   58  A    between atoms: _145  and  _148
REMARK   59  A    between atoms: _148  and  _149
REMARK   60  A    between atoms: _154  and  _155
REMARK   61  A    between atoms: _157  and  _159
REMARK   62  A    between atoms: _159  and  _160
REMARK   63  A    between atoms: _159  and  _162
REMARK   64  A    between atoms: _162  and  _163
REMARK   65  A    between atoms: _168  and  _169
REMARK   66  A    between atoms: _171  and  _173
REMARK   67  A    between atoms: _173  and  _174
REMARK   68  A    between atoms: _173  and  _176
REMARK   69  A    between atoms: _179  and  _181
REMARK   70  A    between atoms: _181  and  _182
REMARK   71  A    between atoms: _181  and  _184
REMARK   72  A    between atoms: _184  and  _185
REMARK   73  A    between atoms: _191  and  _192
REMARK   74  A    between atoms: _197  and  _199
REMARK   75  A    between atoms: _199  and  _200
REMARK   76  A    between atoms: _199  and  _202
REMARK   77  A    between atoms: _202  and  _203
REMARK   78  A    between atoms: _205  and  _207
REMARK   79  A    between atoms: _207  and  _208
REMARK   80  A    between atoms: _207  and  _210
REMARK   81  A    between atoms: _210  and  _211
REMARK   82  A    between atoms: _211  and  _212
REMARK   83  A    between atoms: _215  and  _217
REMARK   84  A    between atoms: _217  and  _218
REMARK   85  A    between atoms: _217  and  _220
REMARK   86  A    between atoms: _220  and  _221
REMARK   87  A    between atoms: _226  and  _227
REMARK   88  A    between atoms: _229  and  _231
REMARK   89  A    between atoms: _231  and  _232
REMARK   90  A    between atoms: _231  and  _234
REMARK   91  A    between atoms: _234  and  _235
REMARK   92  A    between atoms: _240  and  _242
REMARK   93  A    between atoms: _242  and  _243
REMARK   94  A    between atoms: _242  and  _245
REMARK   95  A    between atoms: _245  and  _246
REMARK   96  A    between atoms: _251  and  _253
REMARK   97  A    between atoms: _253  and  _254
REMARK   98  A    between atoms: _253  and  _256
REMARK   99  A    between atoms: _256  and  _257
REMARK  100  A    between atoms: _257  and  _258
REMARK  101  A    between atoms: _260  and  _262
REMARK  102  A    between atoms: _262  and  _263
REMARK  103  A    between atoms: _262  and  _265
REMARK  104  A    between atoms: _265  and  _266
REMARK  105  A    between atoms: _271  and  _272
REMARK  106  A    between atoms: _274  and  _276
REMARK  107  A    between atoms: _276  and  _277
REMARK  108  A    between atoms: _276  and  _279
REMARK  109  A    between atoms: _279  and  _280
REMARK  110  A    between atoms: _283  and  _285
REMARK  111  A    between atoms: _285  and  _286
REMARK  112  A    between atoms: _285  and  _288
REMARK  113  A    between atoms: _288  and  _289
REMARK  114  A    between atoms: _289  and  _497
REMARK  115  A    between atoms: _290  and  _292
REMARK  116  A    between atoms: _292  and  _293
REMARK  117  A    between atoms: _292  and  _295
REMARK  118  A    between atoms: _295  and  _296
REMARK  119  A    between atoms: _299  and  _301
REMARK  120  A    between atoms: _301  and  _302
REMARK  121  A    between atoms: _301  and  _304
REMARK  122  A    between atoms: _304  and  _305
REMARK  123  A    between atoms: _310  and  _311
REMARK  124  A    between atoms: _313  and  _315
REMARK  125  A    between atoms: _315  and  _316
REMARK  126  A    between atoms: _315  and  _318
REMARK  127  A    between atoms: _318  and  _319
REMARK  128  A    between atoms: _324  and  _325
REMARK  129  A    between atoms: _327  and  _329
REMARK  130  A    between atoms: _329  and  _330
REMARK  131  A    between atoms: _329  and  _332
REMARK  132  A    between atoms: _332  and  _333
REMARK  133  A    between atoms: _333  and  _334
REMARK  134  A    between atoms: _337  and  _339
REMARK  135  A    between atoms: _339  and  _340
REMARK  136  A    between atoms: _339  and  _342
REMARK  137  A    between atoms: _342  and  _343
REMARK  138  A    between atoms: _348  and  _349
REMARK  139  A    between atoms: _351  and  _353
REMARK  140  A    between atoms: _353  and  _354
REMARK  141  A    between atoms: _353  and  _356
REMARK  142  A    between atoms: _356  and  _357
REMARK  143  A    between atoms: _362  and  _364
REMARK  144  A    between atoms: _364  and  _365
REMARK  145  A    between atoms: _364  and  _367
REMARK  146  A    between atoms: _367  and  _368
REMARK  147  A    between atoms: _371  and  _373
REMARK  148  A    between atoms: _373  and  _374
REMARK  149  A    between atoms: _373  and  _376
REMARK  150  A    between atoms: _376  and  _377
REMARK  151  A    between atoms: _382  and  _384
REMARK  152  A    between atoms: _384  and  _385
REMARK  153  A    between atoms: _384  and  _387
REMARK  154  A    between atoms: _387  and  _388
REMARK  155  A    between atoms: _398  and  _400
REMARK  156  A    between atoms: _400  and  _401
REMARK  157  A    between atoms: _400  and  _403
REMARK  158  A    between atoms: _403  and  _404
REMARK  159  A    between atoms: _410  and  _412
REMARK  160  A    between atoms: _412  and  _413
REMARK  161  A    between atoms: _412  and  _415
REMARK  162  A    between atoms: _415  and  _416
REMARK  163  A    between atoms: _419  and  _421
REMARK  164  A    between atoms: _421  and  _422
REMARK  165  A    between atoms: _421  and  _424
REMARK  166  A    between atoms: _424  and  _425
REMARK  167  A    between atoms: _425  and  _426
REMARK  168  A    between atoms: _426  and  _427
REMARK  169  A    between atoms: _436  and  _438
REMARK  170  A    between atoms: _438  and  _439
REMARK  171  A    between atoms: _438  and  _441
REMARK  172  A    between atoms: _441  and  _442
REMARK  173  A    between atoms: _447  and  _449
REMARK  174  A    between atoms: _449  and  _450
REMARK  175  A    between atoms: _449  and  _452
REMARK  176  A    between atoms: _452  and  _453
REMARK  177  A    between atoms: _453  and  _454
REMARK  178  A    between atoms: _454  and  _455
REMARK  179  A    between atoms: _464  and  _466
REMARK  180  A    between atoms: _466  and  _467
REMARK  181  A    between atoms: _470  and  _472
REMARK  182  A    between atoms: _472  and  _473
REMARK  183  A    between atoms: _475  and  _477
REMARK  184  A    between atoms: _477  and  _478
REMARK  185  A    between atoms: _477  and  _480
REMARK  186  A    between atoms: _480  and  _481
REMARK  187  A    between atoms: _491  and  _493
REMARK  188  A    between atoms: _493  and  _494
REMARK  189  A    between atoms: _493  and  _496
REMARK  190  A    between atoms: _496  and  _497
REMARK  191  A    between atoms: _498  and  _500
REMARK  192  A    between atoms: _500  and  _501
REMARK  193  A    between atoms: _504  and  _506
REMARK  194  A    between atoms: _506  and  _507
REMARK  195  A    between atoms: _506  and  _509
REMARK  196  A    between atoms: _509  and  _510
REMARK  197  A    between atoms: _513  and  _515
REMARK  198  A    between atoms: _515  and  _516
REMARK  199  A    between atoms: _515  and  _518
REMARK  200  A    between atoms: _518  and  _519
REMARK  201  A    between atoms: _524  and  _525
REMARK  202  A    between atoms: _527  and  _529
REMARK  203  A    between atoms: _529  and  _530
REMARK  204  A    between atoms: _529  and  _532
REMARK  205  A    between atoms: _532  and  _533
REMARK  206  A    between atoms: _535  and  _537
REMARK  207  A    between atoms: _537  and  _538
REMARK  208  A    between atoms: _537  and  _540
REMARK  209  A    between atoms: _540  and  _541
REMARK  210  A    between atoms: _547  and  _549
REMARK  211  A    between atoms: _549  and  _550
REMARK  212  A    between atoms: _549  and  _552
REMARK  213  A    between atoms: _552  and  _553
REMARK  214  A    between atoms: _556  and  _558
REMARK  215  A    between atoms: _558  and  _559
REMARK  216  A    between atoms: _558  and  _561
REMARK  217  A    between atoms: _561  and  _562
REMARK  218  A    between atoms: _562  and  _563
REMARK  219  A    between atoms: _565  and  _567
REMARK  220  A    between atoms: _567  and  _568
REMARK  221  A    between atoms: _567  and  _570
REMARK  222  A    between atoms: _570  and  _571
REMARK  223  A    between atoms: _573  and  _575
REMARK  224  A    between atoms: _575  and  _576
REMARK  225  A    between atoms: _575  and  _578
REMARK  226  A    between atoms: _578  and  _579
REMARK  227  A    between atoms: _581  and  _583
REMARK  228  A    between atoms: _583  and  _584
REMARK  229  A    between atoms: _583  and  _586
REMARK  230  A    between atoms: _586  and  _587
REMARK  231  A    between atoms: _592  and  _594
REMARK  232  A    between atoms: _594  and  _595
REMARK  233  A    between atoms: _594  and  _597
REMARK  234  A    between atoms: _597  and  _598
REMARK  235  A    between atoms: _603  and  _605
REMARK  236  A    between atoms: _605  and  _606
REMARK  237  A    between atoms: _605  and  _608
REMARK  238  A    between atoms: _608  and  _609
REMARK  239  A    between atoms: _612  and  _614
REMARK  240  A    between atoms: _614  and  _615
REMARK  241  A    between atoms: _618  and  _620
REMARK  242  A    between atoms: _620  and  _621
REMARK  243  A    between atoms: _620  and  _623
REMARK  244  A    between atoms: _623  and  _624
REMARK  245  A    between atoms: _629  and  _631
REMARK  246  A    between atoms: _631  and  _632
REMARK  247  A    between atoms: _631  and  _634
REMARK  248  A    between atoms: _634  and  _635
REMARK  249  A    between atoms: _640  and  _641
REMARK  250  A    between atoms: _643  and  _645
REMARK  251  A    between atoms: _645  and  _646
REMARK  252  A    between atoms: _645  and  _648
REMARK  253  A    between atoms: _648  and  _649
REMARK  254  A    between atoms: _654  and  _655
REMARK  255  A    between atoms: _657  and  _659
REMARK  256  A    between atoms: _659  and  _660
REMARK  257  A    between atoms: _659  and  _662
REMARK  258  A    between atoms: _665  and  _667
REMARK  259  A    between atoms: _667  and  _668
REMARK  260  A    between atoms: _667  and  _670
REMARK  261  A    between atoms: _670  and  _671
REMARK  262  A    between atoms: _676  and  _678
REMARK  263  A    between atoms: _678  and  _679
REMARK  264  A    between atoms: _682  and  _684
REMARK  265  A    between atoms: _684  and  _685
REMARK  266  A    between atoms: _684  and  _687
REMARK  267  A    between atoms: _687  and  _688
REMARK  268  A    between atoms: _688  and  _689
REMARK  269  A    between atoms: _689  and  _690
REMARK  270  A    between atoms: _699  and  _701
REMARK  271  A    between atoms: _701  and  _702
REMARK  272  A    between atoms: _701  and  _704
REMARK  273  A    between atoms: _704  and  _705
REMARK  274  A    between atoms: _708  and  _710
REMARK  275  A    between atoms: _710  and  _711
REMARK  276  A    between atoms: _710  and  _713
REMARK  277  A    between atoms: _713  and  _714
REMARK  278  A    between atoms: _717  and  _719
REMARK  279  A    between atoms: _719  and  _720
REMARK  280  A    between atoms: _719  and  _722
REMARK  281  A    between atoms: _722  and  _723
REMARK                            x       y       z     vdW  Elec       q    Type
REMARK                         _______ _______ _______ _____ _____    ______ ____
ROOT
ATOM      1  O   HOH     1      -7.472  24.027  12.278  0.00  0.00    +0.000 OA
ENDROOT
TORSDOF 0
REMARK  Name = ../refined-set-2016/1qka/1qka_pocket.pdb
REMARK  281 active torsions:
REMARK  status: ('A' for Active; 'I' for Inactive)
REMARK    1  A    between atoms: _1  and  _3
REMARK    2  A    between atoms: _3  and  _4
REMARK    3  A    between atoms: _3  and  _6
REMARK    4  A    between atoms: _6  and  _7
REMARK    5  A    between atoms: _12  and  _14
REMARK    6  A    between atoms: _14  and  _15
REMARK    7  A    between atoms: _17  and  _19
REMARK    8  A    between atoms: _19  and  _20
REMARK    9  A    between atoms: _19  and  _22
REMARK   10  A    between atoms: _22  and  _23
REMARK   11  A    between atoms: _25  and  _27
REMARK   12  A    between atoms: _27  and  _28
REMARK   13  A    between atoms: _27  and  _30
REMARK   14  A    between atoms: _30  and  _31
REMARK   15  A    between atoms: _31  and  _32
REMARK   16  A    between atoms: _37  and  _39
REMARK   17  A    between atoms: _39  and  _40
REMARK   18  A    between atoms: _39  and  _42
REMARK   19  A    between atoms: _42  and  _43
REMARK   20  A    between atoms: _46  and  _48
REMARK   21  A    between atoms: _48  and  _49
REMARK   22  A    between atoms: _48  and  _51
REMARK   23  A    between atoms: _51  and  _52
REMARK   24  A    between atoms: _52  and  _53
REMARK   25  A    between atoms: _56  and  _58
REMARK   26  A    between atoms: _58  and  _59
REMARK   27  A    between atoms: _61  and  _63
REMARK   28  A    between atoms: _63  and  _64
REMARK   29  A    between atoms: _63  and  _66
REMARK   30  A    between atoms: _70  and  _71
REMARK   31  A    between atoms: _76  and  _78
REMARK   32  A    between atoms: _78  and  _79
REMARK   33  A    between atoms: _78  and  _81
REMARK   34  A    between atoms: _81  and  _82
REMARK   35  A    between atoms: _82  and  _83
REMARK   36  A    between atoms: _86  and  _88
REMARK   37  A    between atoms: _88  and  _89
REMARK   38  A    between atoms: _88  and  _91
REMARK   39  A    between atoms: _91  and  _92
REMARK   40  A    between atoms: _94  and  _96
REMARK   41  A    between atoms: _96  and  _97
REMARK   42  A    between atoms: _96  and  _99
REMARK   43  A    between atoms: _99  and  _100
REMARK   44  A    between atoms: _105  and  _107
REMARK   45  A    between atoms: _107  and  _108
REMARK   46  A    between atoms: _107  and  _110
REMARK   47  A    between atoms: _110  and  _111
REMARK   48  A    between atoms: _111  and  _112
REMARK   49  A    between atoms: _112  and  _113
REMARK   50  A    between atoms: _123  and  _124
REMARK   51  A    between atoms: _129  and  _131
REMARK   52  A    between atoms: _131  and  _132
REMARK   53  A    between atoms: _131  and  _134
REMARK   54  A    between atoms: _134  and  _135
REMARK   55  A    between atoms: _140  and  _141
REMARK   56  A    between atoms: _143  and  _145
REMARK   57  A    between atoms: _145  and  _146
REMARK   58  A    between atoms: _145  and  _148
REMARK   59  A    between atoms: _148  and  _149
REMARK   60  A    between atoms: _154  and  _155
REMARK   61  A    between atoms: _157  and  _159
REMARK   62  A    between atoms: _159  and  _160
REMARK   63  A    between atoms: _159  and  _162
REMARK   64  A    between atoms: _162  and  _163
REMARK   65  A    between atoms: _168  and  _169
REMARK   66  A    between atoms: _171  and  _173
REMARK   67  A    between atoms: _173  and  _174
REMARK   68  A    between atoms: _173  and  _176
REMARK   69  A    between atoms: _179  and  _181
REMARK   70  A    between atoms: _181  and  _182
REMARK   71  A    between atoms: _181  and  _184
REMARK   72  A    between atoms: _184  and  _185
REMARK   73  A    between atoms: _191  and  _192
REMARK   74  A    between atoms: _197  and  _199
REMARK   75  A    between atoms: _199  and  _200
REMARK   76  A    between atoms: _199  and  _202
REMARK   77  A    between atoms: _202  and  _203
REMARK   78  A    between atoms: _205  and  _207
REMARK   79  A    between atoms: _207  and  _208
REMARK   80  A    between atoms: _207  and  _210
REMARK   81  A    between atoms: _210  and  _211
REMARK   82  A    between atoms: _211  and  _212
REMARK   83  A    between atoms: _215  and  _217
REMARK   84  A    between atoms: _217  and  _218
REMARK   85  A    between atoms: _217  and  _220
REMARK   86  A    between atoms: _220  and  _221
REMARK   87  A    between atoms: _226  and  _227
REMARK   88  A    between atoms: _229  and  _231
REMARK   89  A    between atoms: _231  and  _232
REMARK   90  A    between atoms: _231  and  _234
REMARK   91  A    between atoms: _234  and  _235
REMARK   92  A    between atoms: _240  and  _242
REMARK   93  A    between atoms: _242  and  _243
REMARK   94  A    between atoms: _242  and  _245
REMARK   95  A    between atoms: _245  and  _246
REMARK   96  A    between atoms: _251  and  _253
REMARK   97  A    between atoms: _253  and  _254
REMARK   98  A    between atoms: _253  and  _256
REMARK   99  A    between atoms: _256  and  _257
REMARK  100  A    between atoms: _257  and  _258
REMARK  101  A    between atoms: _260  and  _262
REMARK  102  A    between atoms: _262  and  _263
REMARK  103  A    between atoms: _262  and  _265
REMARK  104  A    between atoms: _265  and  _266
REMARK  105  A    between atoms: _271  and  _272
REMARK  106  A    between atoms: _274  and  _276
REMARK  107  A    between atoms: _276  and  _277
REMARK  108  A    between atoms: _276  and  _279
REMARK  109  A    between atoms: _279  and  _280
REMARK  110  A    between atoms: _283  and  _285
REMARK  111  A    between atoms: _285  and  _286
REMARK  112  A    between atoms: _285  and  _288
REMARK  113  A    between atoms: _288  and  _289
REMARK  114  A    between atoms: _289  and  _497
REMARK  115  A    between atoms: _290  and  _292
REMARK  116  A    between atoms: _292  and  _293
REMARK  117  A    between atoms: _292  and  _295
REMARK  118  A    between atoms: _295  and  _296
REMARK  119  A    between atoms: _299  and  _301
REMARK  120  A    between atoms: _301  and  _302
REMARK  121  A    between atoms: _301  and  _304
REMARK  122  A    between atoms: _304  and  _305
REMARK  123  A    between atoms: _310  and  _311
REMARK  124  A    between atoms: _313  and  _315
REMARK  125  A    between atoms: _315  and  _316
REMARK  126  A    between atoms: _315  and  _318
REMARK  127  A    between atoms: _318  and  _319
REMARK  128  A    between atoms: _324  and  _325
REMARK  129  A    between atoms: _327  and  _329
REMARK  130  A    between atoms: _329  and  _330
REMARK  131  A    between atoms: _329  and  _332
REMARK  132  A    between atoms: _332  and  _333
REMARK  133  A    between atoms: _333  and  _334
REMARK  134  A    between atoms: _337  and  _339
REMARK  135  A    between atoms: _339  and  _340
REMARK  136  A    between atoms: _339  and  _342
REMARK  137  A    between atoms: _342  and  _343
REMARK  138  A    between atoms: _348  and  _349
REMARK  139  A    between atoms: _351  and  _353
REMARK  140  A    between atoms: _353  and  _354
REMARK  141  A    between atoms: _353  and  _356
REMARK  142  A    between atoms: _356  and  _357
REMARK  143  A    between atoms: _362  and  _364
REMARK  144  A    between atoms: _364  and  _365
REMARK  145  A    between atoms: _364  and  _367
REMARK  146  A    between atoms: _367  and  _368
REMARK  147  A    between atoms: _371  and  _373
REMARK  148  A    between atoms: _373  and  _374
REMARK  149  A    between atoms: _373  and  _376
REMARK  150  A    between atoms: _376  and  _377
REMARK  151  A    between atoms: _382  and  _384
REMARK  152  A    between atoms: _384  and  _385
REMARK  153  A    between atoms: _384  and  _387
REMARK  154  A    between atoms: _387  and  _388
REMARK  155  A    between atoms: _398  and  _400
REMARK  156  A    between atoms: _400  and  _401
REMARK  157  A    between atoms: _400  and  _403
REMARK  158  A    between atoms: _403  and  _404
REMARK  159  A    between atoms: _410  and  _412
REMARK  160  A    between atoms: _412  and  _413
REMARK  161  A    between atoms: _412  and  _415
REMARK  162  A    between atoms: _415  and  _416
REMARK  163  A    between atoms: _419  and  _421
REMARK  164  A    between atoms: _421  and  _422
REMARK  165  A    between atoms: _421  and  _424
REMARK  166  A    between atoms: _424  and  _425
REMARK  167  A    between atoms: _425  and  _426
REMARK  168  A    between atoms: _426  and  _427
REMARK  169  A    between atoms: _436  and  _438
REMARK  170  A    between atoms: _438  and  _439
REMARK  171  A    between atoms: _438  and  _441
REMARK  172  A    between atoms: _441  and  _442
REMARK  173  A    between atoms: _447  and  _449
REMARK  174  A    between atoms: _449  and  _450
REMARK  175  A    between atoms: _449  and  _452
REMARK  176  A    between atoms: _452  and  _453
REMARK  177  A    between atoms: _453  and  _454
REMARK  178  A    between atoms: _454  and  _455
REMARK  179  A    between atoms: _464  and  _466
REMARK  180  A    between atoms: _466  and  _467
REMARK  181  A    between atoms: _470  and  _472
REMARK  182  A    between atoms: _472  and  _473
REMARK  183  A    between atoms: _475  and  _477
REMARK  184  A    between atoms: _477  and  _478
REMARK  185  A    between atoms: _477  and  _480
REMARK  186  A    between atoms: _480  and  _481
REMARK  187  A    between atoms: _491  and  _493
REMARK  188  A    between atoms: _493  and  _494
REMARK  189  A    between atoms: _493  and  _496
REMARK  190  A    between atoms: _496  and  _497
REMARK  191  A    between atoms: _498  and  _500
REMARK  192  A    between atoms: _500  and  _501
REMARK  193  A    between atoms: _504  and  _506
REMARK  194  A    between atoms: _506  and  _507
REMARK  195  A    between atoms: _506  and  _509
REMARK  196  A    between atoms: _509  and  _510
REMARK  197  A    between atoms: _513  and  _515
REMARK  198  A    between atoms: _515  and  _516
REMARK  199  A    between atoms: _515  and  _518
REMARK  200  A    between atoms: _518  and  _519
REMARK  201  A    between atoms: _524  and  _525
REMARK  202  A    between atoms: _527  and  _529
REMARK  203  A    between atoms: _529  and  _530
REMARK  204  A    between atoms: _529  and  _532
REMARK  205  A    between atoms: _532  and  _533
REMARK  206  A    between atoms: _535  and  _537
REMARK  207  A    between atoms: _537  and  _538
REMARK  208  A    between atoms: _537  and  _540
REMARK  209  A    between atoms: _540  and  _541
REMARK  210  A    between atoms: _547  and  _549
REMARK  211  A    between atoms: _549  and  _550
REMARK  212  A    between atoms: _549  and  _552
REMARK  213  A    between atoms: _552  and  _553
REMARK  214  A    between atoms: _556  and  _558
REMARK  215  A    between atoms: _558  and  _559
REMARK  216  A    between atoms: _558  and  _561
REMARK  217  A    between atoms: _561  and  _562
REMARK  218  A    between atoms: _562  and  _563
REMARK  219  A    between atoms: _565  and  _567
REMARK  220  A    between atoms: _567  and  _568
REMARK  221  A    between atoms: _567  and  _570
REMARK  222  A    between atoms: _570  and  _571
REMARK  223  A    between atoms: _573  and  _575
REMARK  224  A    between atoms: _575  and  _576
REMARK  225  A    between atoms: _575  and  _578
REMARK  226  A    between atoms: _578  and  _579
REMARK  227  A    between atoms: _581  and  _583
REMARK  228  A    between atoms: _583  and  _584
REMARK  229  A    between atoms: _583  and  _586
REMARK  230  A    between atoms: _586  and  _587
REMARK  231  A    between atoms: _592  and  _594
REMARK  232  A    between atoms: _594  and  _595
REMARK  233  A    between atoms: _594  and  _597
REMARK  234  A    between atoms: _597  and  _598
REMARK  235  A    between atoms: _603  and  _605
REMARK  236  A    between atoms: _605  and  _606
REMARK  237  A    between atoms: _605  and  _608
REMARK  238  A    between atoms: _608  and  _609
REMARK  239  A    between atoms: _612  and  _614
REMARK  240  A    between atoms: _614  and  _615
REMARK  241  A    between atoms: _618  and  _620
REMARK  242  A    between atoms: _620  and  _621
REMARK  243  A    between atoms: _620  and  _623
REMARK  244  A    between atoms: _623  and  _624
REMARK  245  A    between atoms: _629  and  _631
REMARK  246  A    between atoms: _631  and  _632
REMARK  247  A    between atoms: _631  and  _634
REMARK  248  A    between atoms: _634  and  _635
REMARK  249  A    between atoms: _640  and  _641
REMARK  250  A    between atoms: _643  and  _645
REMARK  251  A    between atoms: _645  and  _646
REMARK  252  A    between atoms: _645  and  _648
REMARK  253  A    between atoms: _648  and  _649
REMARK  254  A    between atoms: _654  and  _655
REMARK  255  A    between atoms: _657  and  _659
REMARK  256  A    between atoms: _659  and  _660
REMARK  257  A    between atoms: _659  and  _662
REMARK  258  A    between atoms: _665  and  _667
REMARK  259  A    between atoms: _667  and  _668
REMARK  260  A    between atoms: _667  and  _670
REMARK  261  A    between atoms: _670  and  _671
REMARK  262  A    between atoms: _676  and  _678
REMARK  263  A    between atoms: _678  and  _679
REMARK  264  A    between atoms: _682  and  _684
REMARK  265  A    between atoms: _684  and  _685
REMARK  266  A    between atoms: _684  and  _687
REMARK  267  A    between atoms: _687  and  _688
REMARK  268  A    between atoms: _688  and  _689
REMARK  269  A    between atoms: _689  and  _690
REMARK  270  A    between atoms: _699  and  _701
REMARK  271  A    between atoms: _701  and  _702
REMARK  272  A    between atoms: _701  and  _704
REMARK  273  A    between atoms: _704  and  _705
REMARK  274  A    between atoms: _708  and  _710
REMARK  275  A    between atoms: _710  and  _711
REMARK  276  A    between atoms: _710  and  _713
REMARK  277  A    between atoms: _713  and  _714
REMARK  278  A    between atoms: _717  and  _719
REMARK  279  A    between atoms: _719  and  _720
REMARK  280  A    between atoms: _719  and  _722
REMARK  281  A    between atoms: _722  and  _723
REMARK                            x       y       z     vdW  Elec       q    Type
REMARK                         _______ _______ _______ _____ _____    ______ ____
ROOT
ATOM      1  O   HOH     1      -9.763  21.759   9.148  0.00  0.00    +0.000 OA
ENDROOT
TORSDOF 0
REMARK  Name = ../refined-set-2016/1qka/1qka_pocket.pdb
REMARK  281 active torsions:
REMARK  status: ('A' for Active; 'I' for Inactive)
REMARK    1  A    between atoms: _1  and  _3
REMARK    2  A    between atoms: _3  and  _4
REMARK    3  A    between atoms: _3  and  _6
REMARK    4  A    between atoms: _6  and  _7
REMARK    5  A    between atoms: _12  and  _14
REMARK    6  A    between atoms: _14  and  _15
REMARK    7  A    between atoms: _17  and  _19
REMARK    8  A    between atoms: _19  and  _20
REMARK    9  A    between atoms: _19  and  _22
REMARK   10  A    between atoms: _22  and  _23
REMARK   11  A    between atoms: _25  and  _27
REMARK   12  A    between atoms: _27  and  _28
REMARK   13  A    between atoms: _27  and  _30
REMARK   14  A    between atoms: _30  and  _31
REMARK   15  A    between atoms: _31  and  _32
REMARK   16  A    between atoms: _37  and  _39
REMARK   17  A    between atoms: _39  and  _40
REMARK   18  A    between atoms: _39  and  _42
REMARK   19  A    between atoms: _42  and  _43
REMARK   20  A    between atoms: _46  and  _48
REMARK   21  A    between atoms: _48  and  _49
REMARK   22  A    between atoms: _48  and  _51
REMARK   23  A    between atoms: _51  and  _52
REMARK   24  A    between atoms: _52  and  _53
REMARK   25  A    between atoms: _56  and  _58
REMARK   26  A    between atoms: _58  and  _59
REMARK   27  A    between atoms: _61  and  _63
REMARK   28  A    between atoms: _63  and  _64
REMARK   29  A    between atoms: _63  and  _66
REMARK   30  A    between atoms: _70  and  _71
REMARK   31  A    between atoms: _76  and  _78
REMARK   32  A    between atoms: _78  and  _79
REMARK   33  A    between atoms: _78  and  _81
REMARK   34  A    between atoms: _81  and  _82
REMARK   35  A    between atoms: _82  and  _83
REMARK   36  A    between atoms: _86  and  _88
REMARK   37  A    between atoms: _88  and  _89
REMARK   38  A    between atoms: _88  and  _91
REMARK   39  A    between atoms: _91  and  _92
REMARK   40  A    between atoms: _94  and  _96
REMARK   41  A    between atoms: _96  and  _97
REMARK   42  A    between atoms: _96  and  _99
REMARK   43  A    between atoms: _99  and  _100
REMARK   44  A    between atoms: _105  and  _107
REMARK   45  A    between atoms: _107  and  _108
REMARK   46  A    between atoms: _107  and  _110
REMARK   47  A    between atoms: _110  and  _111
REMARK   48  A    between atoms: _111  and  _112
REMARK   49  A    between atoms: _112  and  _113
REMARK   50  A    between atoms: _123  and  _124
REMARK   51  A    between atoms: _129  and  _131
REMARK   52  A    between atoms: _131  and  _132
REMARK   53  A    between atoms: _131  and  _134
REMARK   54  A    between atoms: _134  and  _135
REMARK   55  A    between atoms: _140  and  _141
REMARK   56  A    between atoms: _143  and  _145
REMARK   57  A    between atoms: _145  and  _146
REMARK   58  A    between atoms: _145  and  _148
REMARK   59  A    between atoms: _148  and  _149
REMARK   60  A    between atoms: _154  and  _155
REMARK   61  A    between atoms: _157  and  _159
REMARK   62  A    between atoms: _159  and  _160
REMARK   63  A    between atoms: _159  and  _162
REMARK   64  A    between atoms: _162  and  _163
REMARK   65  A    between atoms: _168  and  _169
REMARK   66  A    between atoms: _171  and  _173
REMARK   67  A    between atoms: _173  and  _174
REMARK   68  A    between atoms: _173  and  _176
REMARK   69  A    between atoms: _179  and  _181
REMARK   70  A    between atoms: _181  and  _182
REMARK   71  A    between atoms: _181  and  _184
REMARK   72  A    between atoms: _184  and  _185
REMARK   73  A    between atoms: _191  and  _192
REMARK   74  A    between atoms: _197  and  _199
REMARK   75  A    between atoms: _199  and  _200
REMARK   76  A    between atoms: _199  and  _202
REMARK   77  A    between atoms: _202  and  _203
REMARK   78  A    between atoms: _205  and  _207
REMARK   79  A    between atoms: _207  and  _208
REMARK   80  A    between atoms: _207  and  _210
REMARK   81  A    between atoms: _210  and  _211
REMARK   82  A    between atoms: _211  and  _212
REMARK   83  A    between atoms: _215  and  _217
REMARK   84  A    between atoms: _217  and  _218
REMARK   85  A    between atoms: _217  and  _220
REMARK   86  A    between atoms: _220  and  _221
REMARK   87  A    between atoms: _226  and  _227
REMARK   88  A    between atoms: _229  and  _231
REMARK   89  A    between atoms: _231  and  _232
REMARK   90  A    between atoms: _231  and  _234
REMARK   91  A    between atoms: _234  and  _235
REMARK   92  A    between atoms: _240  and  _242
REMARK   93  A    between atoms: _242  and  _243
REMARK   94  A    between atoms: _242  and  _245
REMARK   95  A    between atoms: _245  and  _246
REMARK   96  A    between atoms: _251  and  _253
REMARK   97  A    between atoms: _253  and  _254
REMARK   98  A    between atoms: _253  and  _256
REMARK   99  A    between atoms: _256  and  _257
REMARK  100  A    between atoms: _257  and  _258
REMARK  101  A    between atoms: _260  and  _262
REMARK  102  A    between atoms: _262  and  _263
REMARK  103  A    between atoms: _262  and  _265
REMARK  104  A    between atoms: _265  and  _266
REMARK  105  A    between atoms: _271  and  _272
REMARK  106  A    between atoms: _274  and  _276
REMARK  107  A    between atoms: _276  and  _277
REMARK  108  A    between atoms: _276  and  _279
REMARK  109  A    between atoms: _279  and  _280
REMARK  110  A    between atoms: _283  and  _285
REMARK  111  A    between atoms: _285  and  _286
REMARK  112  A    between atoms: _285  and  _288
REMARK  113  A    between atoms: _288  and  _289
REMARK  114  A    between atoms: _289  and  _497
REMARK  115  A    between atoms: _290  and  _292
REMARK  116  A    between atoms: _292  and  _293
REMARK  117  A    between atoms: _292  and  _295
REMARK  118  A    between atoms: _295  and  _296
REMARK  119  A    between atoms: _299  and  _301
REMARK  120  A    between atoms: _301  and  _302
REMARK  121  A    between atoms: _301  and  _304
REMARK  122  A    between atoms: _304  and  _305
REMARK  123  A    between atoms: _310  and  _311
REMARK  124  A    between atoms: _313  and  _315
REMARK  125  A    between atoms: _315  and  _316
REMARK  126  A    between atoms: _315  and  _318
REMARK  127  A    between atoms: _318  and  _319
REMARK  128  A    between atoms: _324  and  _325
REMARK  129  A    between atoms: _327  and  _329
REMARK  130  A    between atoms: _329  and  _330
REMARK  131  A    between atoms: _329  and  _332
REMARK  132  A    between atoms: _332  and  _333
REMARK  133  A    between atoms: _333  and  _334
REMARK  134  A    between atoms: _337  and  _339
REMARK  135  A    between atoms: _339  and  _340
REMARK  136  A    between atoms: _339  and  _342
REMARK  137  A    between atoms: _342  and  _343
REMARK  138  A    between atoms: _348  and  _349
REMARK  139  A    between atoms: _351  and  _353
REMARK  140  A    between atoms: _353  and  _354
REMARK  141  A    between atoms: _353  and  _356
REMARK  142  A    between atoms: _356  and  _357
REMARK  143  A    between atoms: _362  and  _364
REMARK  144  A    between atoms: _364  and  _365
REMARK  145  A    between atoms: _364  and  _367
REMARK  146  A    between atoms: _367  and  _368
REMARK  147  A    between atoms: _371  and  _373
REMARK  148  A    between atoms: _373  and  _374
REMARK  149  A    between atoms: _373  and  _376
REMARK  150  A    between atoms: _376  and  _377
REMARK  151  A    between atoms: _382  and  _384
REMARK  152  A    between atoms: _384  and  _385
REMARK  153  A    between atoms: _384  and  _387
REMARK  154  A    between atoms: _387  and  _388
REMARK  155  A    between atoms: _398  and  _400
REMARK  156  A    between atoms: _400  and  _401
REMARK  157  A    between atoms: _400  and  _403
REMARK  158  A    between atoms: _403  and  _404
REMARK  159  A    between atoms: _410  and  _412
REMARK  160  A    between atoms: _412  and  _413
REMARK  161  A    between atoms: _412  and  _415
REMARK  162  A    between atoms: _415  and  _416
REMARK  163  A    between atoms: _419  and  _421
REMARK  164  A    between atoms: _421  and  _422
REMARK  165  A    between atoms: _421  and  _424
REMARK  166  A    between atoms: _424  and  _425
REMARK  167  A    between atoms: _425  and  _426
REMARK  168  A    between atoms: _426  and  _427
REMARK  169  A    between atoms: _436  and  _438
REMARK  170  A    between atoms: _438  and  _439
REMARK  171  A    between atoms: _438  and  _441
REMARK  172  A    between atoms: _441  and  _442
REMARK  173  A    between atoms: _447  and  _449
REMARK  174  A    between atoms: _449  and  _450
REMARK  175  A    between atoms: _449  and  _452
REMARK  176  A    between atoms: _452  and  _453
REMARK  177  A    between atoms: _453  and  _454
REMARK  178  A    between atoms: _454  and  _455
REMARK  179  A    between atoms: _464  and  _466
REMARK  180  A    between atoms: _466  and  _467
REMARK  181  A    between atoms: _470  and  _472
REMARK  182  A    between atoms: _472  and  _473
REMARK  183  A    between atoms: _475  and  _477
REMARK  184  A    between atoms: _477  and  _478
REMARK  185  A    between atoms: _477  and  _480
REMARK  186  A    between atoms: _480  and  _481
REMARK  187  A    between atoms: _491  and  _493
REMARK  188  A    between atoms: _493  and  _494
REMARK  189  A    between atoms: _493  and  _496
REMARK  190  A    between atoms: _496  and  _497
REMARK  191  A    between atoms: _498  and  _500
REMARK  192  A    between atoms: _500  and  _501
REMARK  193  A    between atoms: _504  and  _506
REMARK  194  A    between atoms: _506  and  _507
REMARK  195  A    between atoms: _506  and  _509
REMARK  196  A    between atoms: _509  and  _510
REMARK  197  A    between atoms: _513  and  _515
REMARK  198  A    between atoms: _515  and  _516
REMARK  199  A    between atoms: _515  and  _518
REMARK  200  A    between atoms: _518  and  _519
REMARK  201  A    between atoms: _524  and  _525
REMARK  202  A    between atoms: _527  and  _529
REMARK  203  A    between atoms: _529  and  _530
REMARK  204  A    between atoms: _529  and  _532
REMARK  205  A    between atoms: _532  and  _533
REMARK  206  A    between atoms: _535  and  _537
REMARK  207  A    between atoms: _537  and  _538
REMARK  208  A    between atoms: _537  and  _540
REMARK  209  A    between atoms: _540  and  _541
REMARK  210  A    between atoms: _547  and  _549
REMARK  211  A    between atoms: _549  and  _550
REMARK  212  A    between atoms: _549  and  _552
REMARK  213  A    between atoms: _552  and  _553
REMARK  214  A    between atoms: _556  and  _558
REMARK  215  A    between atoms: _558  and  _559
REMARK  216  A    between atoms: _558  and  _561
REMARK  217  A    between atoms: _561  and  _562
REMARK  218  A    between atoms: _562  and  _563
REMARK  219  A    between atoms: _565  and  _567
REMARK  220  A    between atoms: _567  and  _568
REMARK  221  A    between atoms: _567  and  _570
REMARK  222  A    between atoms: _570  and  _571
REMARK  223  A    between atoms: _573  and  _575
REMARK  224  A    between atoms: _575  and  _576
REMARK  225  A    between atoms: _575  and  _578
REMARK  226  A    between atoms: _578  and  _579
REMARK  227  A    between atoms: _581  and  _583
REMARK  228  A    between atoms: _583  and  _584
REMARK  229  A    between atoms: _583  and  _586
REMARK  230  A    between atoms: _586  and  _587
REMARK  231  A    between atoms: _592  and  _594
REMARK  232  A    between atoms: _594  and  _595
REMARK  233  A    between atoms: _594  and  _597
REMARK  234  A    between atoms: _597  and  _598
REMARK  235  A    between atoms: _603  and  _605
REMARK  236  A    between atoms: _605  and  _606
REMARK  237  A    between atoms: _605  and  _608
REMARK  238  A    between atoms: _608  and  _609
REMARK  239  A    between atoms: _612  and  _614
REMARK  240  A    between atoms: _614  and  _615
REMARK  241  A    between atoms: _618  and  _620
REMARK  242  A    between atoms: _620  and  _621
REMARK  243  A    between atoms: _620  and  _623
REMARK  244  A    between atoms: _623  and  _624
REMARK  245  A    between atoms: _629  and  _631
REMARK  246  A    between atoms: _631  and  _632
REMARK  247  A    between atoms: _631  and  _634
REMARK  248  A    between atoms: _634  and  _635
REMARK  249  A    between atoms: _640  and  _641
REMARK  250  A    between atoms: _643  and  _645
REMARK  251  A    between atoms: _645  and  _646
REMARK  252  A    between atoms: _645  and  _648
REMARK  253  A    between atoms: _648  and  _649
REMARK  254  A    between atoms: _654  and  _655
REMARK  255  A    between atoms: _657  and  _659
REMARK  256  A    between atoms: _659  and  _660
REMARK  257  A    between atoms: _659  and  _662
REMARK  258  A    between atoms: _665  and  _667
REMARK  259  A    between atoms: _667  and  _668
REMARK  260  A    between atoms: _667  and  _670
REMARK  261  A    between atoms: _670  and  _671
REMARK  262  A    between atoms: _676  and  _678
REMARK  263  A    between atoms: _678  and  _679
REMARK  264  A    between atoms: _682  and  _684
REMARK  265  A    between atoms: _684  and  _685
REMARK  266  A    between atoms: _684  and  _687
REMARK  267  A    between atoms: _687  and  _688
REMARK  268  A    between atoms: _688  and  _689
REMARK  269  A    between atoms: _689  and  _690
REMARK  270  A    between atoms: _699  and  _701
REMARK  271  A    between atoms: _701  and  _702
REMARK  272  A    between atoms: _701  and  _704
REMARK  273  A    between atoms: _704  and  _705
REMARK  274  A    between atoms: _708  and  _710
REMARK  275  A    between atoms: _710  and  _711
REMARK  276  A    between atoms: _710  and  _713
REMARK  277  A    between atoms: _713  and  _714
REMARK  278  A    between atoms: _717  and  _719
REMARK  279  A    between atoms: _719  and  _720
REMARK  280  A    between atoms: _719  and  _722
REMARK  281  A    between atoms: _722  and  _723
REMARK                            x       y       z     vdW  Elec       q    Type
REMARK                         _______ _______ _______ _____ _____    ______ ____
ROOT
ATOM      1  O   HOH     1      -2.286  17.496   7.823  0.00  0.00    +0.000 OA
ENDROOT
TORSDOF 0
REMARK  Name = ../refined-set-2016/1qka/1qka_pocket.pdb
REMARK  281 active torsions:
REMARK  status: ('A' for Active; 'I' for Inactive)
REMARK    1  A    between atoms: _1  and  _3
REMARK    2  A    between atoms: _3  and  _4
REMARK    3  A    between atoms: _3  and  _6
REMARK    4  A    between atoms: _6  and  _7
REMARK    5  A    between atoms: _12  and  _14
REMARK    6  A    between atoms: _14  and  _15
REMARK    7  A    between atoms: _17  and  _19
REMARK    8  A    between atoms: _19  and  _20
REMARK    9  A    between atoms: _19  and  _22
REMARK   10  A    between atoms: _22  and  _23
REMARK   11  A    between atoms: _25  and  _27
REMARK   12  A    between atoms: _27  and  _28
REMARK   13  A    between atoms: _27  and  _30
REMARK   14  A    between atoms: _30  and  _31
REMARK   15  A    between atoms: _31  and  _32
REMARK   16  A    between atoms: _37  and  _39
REMARK   17  A    between atoms: _39  and  _40
REMARK   18  A    between atoms: _39  and  _42
REMARK   19  A    between atoms: _42  and  _43
REMARK   20  A    between atoms: _46  and  _48
REMARK   21  A    between atoms: _48  and  _49
REMARK   22  A    between atoms: _48  and  _51
REMARK   23  A    between atoms: _51  and  _52
REMARK   24  A    between atoms: _52  and  _53
REMARK   25  A    between atoms: _56  and  _58
REMARK   26  A    between atoms: _58  and  _59
REMARK   27  A    between atoms: _61  and  _63
REMARK   28  A    between atoms: _63  and  _64
REMARK   29  A    between atoms: _63  and  _66
REMARK   30  A    between atoms: _70  and  _71
REMARK   31  A    between atoms: _76  and  _78
REMARK   32  A    between atoms: _78  and  _79
REMARK   33  A    between atoms: _78  and  _81
REMARK   34  A    between atoms: _81  and  _82
REMARK   35  A    between atoms: _82  and  _83
REMARK   36  A    between atoms: _86  and  _88
REMARK   37  A    between atoms: _88  and  _89
REMARK   38  A    between atoms: _88  and  _91
REMARK   39  A    between atoms: _91  and  _92
REMARK   40  A    between atoms: _94  and  _96
REMARK   41  A    between atoms: _96  and  _97
REMARK   42  A    between atoms: _96  and  _99
REMARK   43  A    between atoms: _99  and  _100
REMARK   44  A    between atoms: _105  and  _107
REMARK   45  A    between atoms: _107  and  _108
REMARK   46  A    between atoms: _107  and  _110
REMARK   47  A    between atoms: _110  and  _111
REMARK   48  A    between atoms: _111  and  _112
REMARK   49  A    between atoms: _112  and  _113
REMARK   50  A    between atoms: _123  and  _124
REMARK   51  A    between atoms: _129  and  _131
REMARK   52  A    between atoms: _131  and  _132
REMARK   53  A    between atoms: _131  and  _134
REMARK   54  A    between atoms: _134  and  _135
REMARK   55  A    between atoms: _140  and  _141
REMARK   56  A    between atoms: _143  and  _145
REMARK   57  A    between atoms: _145  and  _146
REMARK   58  A    between atoms: _145  and  _148
REMARK   59  A    between atoms: _148  and  _149
REMARK   60  A    between atoms: _154  and  _155
REMARK   61  A    between atoms: _157  and  _159
REMARK   62  A    between atoms: _159  and  _160
REMARK   63  A    between atoms: _159  and  _162
REMARK   64  A    between atoms: _162  and  _163
REMARK   65  A    between atoms: _168  and  _169
REMARK   66  A    between atoms: _171  and  _173
REMARK   67  A    between atoms: _173  and  _174
REMARK   68  A    between atoms: _173  and  _176
REMARK   69  A    between atoms: _179  and  _181
REMARK   70  A    between atoms: _181  and  _182
REMARK   71  A    between atoms: _181  and  _184
REMARK   72  A    between atoms: _184  and  _185
REMARK   73  A    between atoms: _191  and  _192
REMARK   74  A    between atoms: _197  and  _199
REMARK   75  A    between atoms: _199  and  _200
REMARK   76  A    between atoms: _199  and  _202
REMARK   77  A    between atoms: _202  and  _203
REMARK   78  A    between atoms: _205  and  _207
REMARK   79  A    between atoms: _207  and  _208
REMARK   80  A    between atoms: _207  and  _210
REMARK   81  A    between atoms: _210  and  _211
REMARK   82  A    between atoms: _211  and  _212
REMARK   83  A    between atoms: _215  and  _217
REMARK   84  A    between atoms: _217  and  _218
REMARK   85  A    between atoms: _217  and  _220
REMARK   86  A    between atoms: _220  and  _221
REMARK   87  A    between atoms: _226  and  _227
REMARK   88  A    between atoms: _229  and  _231
REMARK   89  A    between atoms: _231  and  _232
REMARK   90  A    between atoms: _231  and  _234
REMARK   91  A    between atoms: _234  and  _235
REMARK   92  A    between atoms: _240  and  _242
REMARK   93  A    between atoms: _242  and  _243
REMARK   94  A    between atoms: _242  and  _245
REMARK   95  A    between atoms: _245  and  _246
REMARK   96  A    between atoms: _251  and  _253
REMARK   97  A    between atoms: _253  and  _254
REMARK   98  A    between atoms: _253  and  _256
REMARK   99  A    between atoms: _256  and  _257
REMARK  100  A    between atoms: _257  and  _258
REMARK  101  A    between atoms: _260  and  _262
REMARK  102  A    between atoms: _262  and  _263
REMARK  103  A    between atoms: _262  and  _265
REMARK  104  A    between atoms: _265  and  _266
REMARK  105  A    between atoms: _271  and  _272
REMARK  106  A    between atoms: _274  and  _276
REMARK  107  A    between atoms: _276  and  _277
REMARK  108  A    between atoms: _276  and  _279
REMARK  109  A    between atoms: _279  and  _280
REMARK  110  A    between atoms: _283  and  _285
REMARK  111  A    between atoms: _285  and  _286
REMARK  112  A    between atoms: _285  and  _288
REMARK  113  A    between atoms: _288  and  _289
REMARK  114  A    between atoms: _289  and  _497
REMARK  115  A    between atoms: _290  and  _292
REMARK  116  A    between atoms: _292  and  _293
REMARK  117  A    between atoms: _292  and  _295
REMARK  118  A    between atoms: _295  and  _296
REMARK  119  A    between atoms: _299  and  _301
REMARK  120  A    between atoms: _301  and  _302
REMARK  121  A    between atoms: _301  and  _304
REMARK  122  A    between atoms: _304  and  _305
REMARK  123  A    between atoms: _310  and  _311
REMARK  124  A    between atoms: _313  and  _315
REMARK  125  A    between atoms: _315  and  _316
REMARK  126  A    between atoms: _315  and  _318
REMARK  127  A    between atoms: _318  and  _319
REMARK  128  A    between atoms: _324  and  _325
REMARK  129  A    between atoms: _327  and  _329
REMARK  130  A    between atoms: _329  and  _330
REMARK  131  A    between atoms: _329  and  _332
REMARK  132  A    between atoms: _332  and  _333
REMARK  133  A    between atoms: _333  and  _334
REMARK  134  A    between atoms: _337  and  _339
REMARK  135  A    between atoms: _339  and  _340
REMARK  136  A    between atoms: _339  and  _342
REMARK  137  A    between atoms: _342  and  _343
REMARK  138  A    between atoms: _348  and  _349
REMARK  139  A    between atoms: _351  and  _353
REMARK  140  A    between atoms: _353  and  _354
REMARK  141  A    between atoms: _353  and  _356
REMARK  142  A    between atoms: _356  and  _357
REMARK  143  A    between atoms: _362  and  _364
REMARK  144  A    between atoms: _364  and  _365
REMARK  145  A    between atoms: _364  and  _367
REMARK  146  A    between atoms: _367  and  _368
REMARK  147  A    between atoms: _371  and  _373
REMARK  148  A    between atoms: _373  and  _374
REMARK  149  A    between atoms: _373  and  _376
REMARK  150  A    between atoms: _376  and  _377
REMARK  151  A    between atoms: _382  and  _384
REMARK  152  A    between atoms: _384  and  _385
REMARK  153  A    between atoms: _384  and  _387
REMARK  154  A    between atoms: _387  and  _388
REMARK  155  A    between atoms: _398  and  _400
REMARK  156  A    between atoms: _400  and  _401
REMARK  157  A    between atoms: _400  and  _403
REMARK  158  A    between atoms: _403  and  _404
REMARK  159  A    between atoms: _410  and  _412
REMARK  160  A    between atoms: _412  and  _413
REMARK  161  A    between atoms: _412  and  _415
REMARK  162  A    between atoms: _415  and  _416
REMARK  163  A    between atoms: _419  and  _421
REMARK  164  A    between atoms: _421  and  _422
REMARK  165  A    between atoms: _421  and  _424
REMARK  166  A    between atoms: _424  and  _425
REMARK  167  A    between atoms: _425  and  _426
REMARK  168  A    between atoms: _426  and  _427
REMARK  169  A    between atoms: _436  and  _438
REMARK  170  A    between atoms: _438  and  _439
REMARK  171  A    between atoms: _438  and  _441
REMARK  172  A    between atoms: _441  and  _442
REMARK  173  A    between atoms: _447  and  _449
REMARK  174  A    between atoms: _449  and  _450
REMARK  175  A    between atoms: _449  and  _452
REMARK  176  A    between atoms: _452  and  _453
REMARK  177  A    between atoms: _453  and  _454
REMARK  178  A    between atoms: _454  and  _455
REMARK  179  A    between atoms: _464  and  _466
REMARK  180  A    between atoms: _466  and  _467
REMARK  181  A    between atoms: _470  and  _472
REMARK  182  A    between atoms: _472  and  _473
REMARK  183  A    between atoms: _475  and  _477
REMARK  184  A    between atoms: _477  and  _478
REMARK  185  A    between atoms: _477  and  _480
REMARK  186  A    between atoms: _480  and  _481
REMARK  187  A    between atoms: _491  and  _493
REMARK  188  A    between atoms: _493  and  _494
REMARK  189  A    between atoms: _493  and  _496
REMARK  190  A    between atoms: _496  and  _497
REMARK  191  A    between atoms: _498  and  _500
REMARK  192  A    between atoms: _500  and  _501
REMARK  193  A    between atoms: _504  and  _506
REMARK  194  A    between atoms: _506  and  _507
REMARK  195  A    between atoms: _506  and  _509
REMARK  196  A    between atoms: _509  and  _510
REMARK  197  A    between atoms: _513  and  _515
REMARK  198  A    between atoms: _515  and  _516
REMARK  199  A    between atoms: _515  and  _518
REMARK  200  A    between atoms: _518  and  _519
REMARK  201  A    between atoms: _524  and  _525
REMARK  202  A    between atoms: _527  and  _529
REMARK  203  A    between atoms: _529  and  _530
REMARK  204  A    between atoms: _529  and  _532
REMARK  205  A    between atoms: _532  and  _533
REMARK  206  A    between atoms: _535  and  _537
REMARK  207  A    between atoms: _537  and  _538
REMARK  208  A    between atoms: _537  and  _540
REMARK  209  A    between atoms: _540  and  _541
REMARK  210  A    between atoms: _547  and  _549
REMARK  211  A    between atoms: _549  and  _550
REMARK  212  A    between atoms: _549  and  _552
REMARK  213  A    between atoms: _552  and  _553
REMARK  214  A    between atoms: _556  and  _558
REMARK  215  A    between atoms: _558  and  _559
REMARK  216  A    between atoms: _558  and  _561
REMARK  217  A    between atoms: _561  and  _562
REMARK  218  A    between atoms: _562  and  _563
REMARK  219  A    between atoms: _565  and  _567
REMARK  220  A    between atoms: _567  and  _568
REMARK  221  A    between atoms: _567  and  _570
REMARK  222  A    between atoms: _570  and  _571
REMARK  223  A    between atoms: _573  and  _575
REMARK  224  A    between atoms: _575  and  _576
REMARK  225  A    between atoms: _575  and  _578
REMARK  226  A    between atoms: _578  and  _579
REMARK  227  A    between atoms: _581  and  _583
REMARK  228  A    between atoms: _583  and  _584
REMARK  229  A    between atoms: _583  and  _586
REMARK  230  A    between atoms: _586  and  _587
REMARK  231  A    between atoms: _592  and  _594
REMARK  232  A    between atoms: _594  and  _595
REMARK  233  A    between atoms: _594  and  _597
REMARK  234  A    between atoms: _597  and  _598
REMARK  235  A    between atoms: _603  and  _605
REMARK  236  A    between atoms: _605  and  _606
REMARK  237  A    between atoms: _605  and  _608
REMARK  238  A    between atoms: _608  and  _609
REMARK  239  A    between atoms: _612  and  _614
REMARK  240  A    between atoms: _614  and  _615
REMARK  241  A    between atoms: _618  and  _620
REMARK  242  A    between atoms: _620  and  _621
REMARK  243  A    between atoms: _620  and  _623
REMARK  244  A    between atoms: _623  and  _624
REMARK  245  A    between atoms: _629  and  _631
REMARK  246  A    between atoms: _631  and  _632
REMARK  247  A    between atoms: _631  and  _634
REMARK  248  A    between atoms: _634  and  _635
REMARK  249  A    between atoms: _640  and  _641
REMARK  250  A    between atoms: _643  and  _645
REMARK  251  A    between atoms: _645  and  _646
REMARK  252  A    between atoms: _645  and  _648
REMARK  253  A    between atoms: _648  and  _649
REMARK  254  A    between atoms: _654  and  _655
REMARK  255  A    between atoms: _657  and  _659
REMARK  256  A    between atoms: _659  and  _660
REMARK  257  A    between atoms: _659  and  _662
REMARK  258  A    between atoms: _665  and  _667
REMARK  259  A    between atoms: _667  and  _668
REMARK  260  A    between atoms: _667  and  _670
REMARK  261  A    between atoms: _670  and  _671
REMARK  262  A    between atoms: _676  and  _678
REMARK  263  A    between atoms: _678  and  _679
REMARK  264  A    between atoms: _682  and  _684
REMARK  265  A    between atoms: _684  and  _685
REMARK  266  A    between atoms: _684  and  _687
REMARK  267  A    between atoms: _687  and  _688
REMARK  268  A    between atoms: _688  and  _689
REMARK  269  A    between atoms: _689  and  _690
REMARK  270  A    between atoms: _699  and  _701
REMARK  271  A    between atoms: _701  and  _702
REMARK  272  A    between atoms: _701  and  _704
REMARK  273  A    between atoms: _704  and  _705
REMARK  274  A    between atoms: _708  and  _710
REMARK  275  A    between atoms: _710  and  _711
REMARK  276  A    between atoms: _710  and  _713
REMARK  277  A    between atoms: _713  and  _714
REMARK  278  A    between atoms: _717  and  _719
REMARK  279  A    between atoms: _719  and  _720
REMARK  280  A    between atoms: _719  and  _722
REMARK  281  A    between atoms: _722  and  _723
REMARK                            x       y       z     vdW  Elec       q    Type
REMARK                         _______ _______ _______ _____ _____    ______ ____
ROOT
ATOM      1  O   HOH     1      -8.245  14.674  13.240  0.00  0.00    +0.000 OA
ENDROOT
TORSDOF 0
REMARK  Name = ../refined-set-2016/1qka/1qka_pocket.pdb
REMARK  281 active torsions:
REMARK  status: ('A' for Active; 'I' for Inactive)
REMARK    1  A    between atoms: _1  and  _3
REMARK    2  A    between atoms: _3  and  _4
REMARK    3  A    between atoms: _3  and  _6
REMARK    4  A    between atoms: _6  and  _7
REMARK    5  A    between atoms: _12  and  _14
REMARK    6  A    between atoms: _14  and  _15
REMARK    7  A    between atoms: _17  and  _19
REMARK    8  A    between atoms: _19  and  _20
REMARK    9  A    between atoms: _19  and  _22
REMARK   10  A    between atoms: _22  and  _23
REMARK   11  A    between atoms: _25  and  _27
REMARK   12  A    between atoms: _27  and  _28
REMARK   13  A    between atoms: _27  and  _30
REMARK   14  A    between atoms: _30  and  _31
REMARK   15  A    between atoms: _31  and  _32
REMARK   16  A    between atoms: _37  and  _39
REMARK   17  A    between atoms: _39  and  _40
REMARK   18  A    between atoms: _39  and  _42
REMARK   19  A    between atoms: _42  and  _43
REMARK   20  A    between atoms: _46  and  _48
REMARK   21  A    between atoms: _48  and  _49
REMARK   22  A    between atoms: _48  and  _51
REMARK   23  A    between atoms: _51  and  _52
REMARK   24  A    between atoms: _52  and  _53
REMARK   25  A    between atoms: _56  and  _58
REMARK   26  A    between atoms: _58  and  _59
REMARK   27  A    between atoms: _61  and  _63
REMARK   28  A    between atoms: _63  and  _64
REMARK   29  A    between atoms: _63  and  _66
REMARK   30  A    between atoms: _70  and  _71
REMARK   31  A    between atoms: _76  and  _78
REMARK   32  A    between atoms: _78  and  _79
REMARK   33  A    between atoms: _78  and  _81
REMARK   34  A    between atoms: _81  and  _82
REMARK   35  A    between atoms: _82  and  _83
REMARK   36  A    between atoms: _86  and  _88
REMARK   37  A    between atoms: _88  and  _89
REMARK   38  A    between atoms: _88  and  _91
REMARK   39  A    between atoms: _91  and  _92
REMARK   40  A    between atoms: _94  and  _96
REMARK   41  A    between atoms: _96  and  _97
REMARK   42  A    between atoms: _96  and  _99
REMARK   43  A    between atoms: _99  and  _100
REMARK   44  A    between atoms: _105  and  _107
REMARK   45  A    between atoms: _107  and  _108
REMARK   46  A    between atoms: _107  and  _110
REMARK   47  A    between atoms: _110  and  _111
REMARK   48  A    between atoms: _111  and  _112
REMARK   49  A    between atoms: _112  and  _113
REMARK   50  A    between atoms: _123  and  _124
REMARK   51  A    between atoms: _129  and  _131
REMARK   52  A    between atoms: _131  and  _132
REMARK   53  A    between atoms: _131  and  _134
REMARK   54  A    between atoms: _134  and  _135
REMARK   55  A    between atoms: _140  and  _141
REMARK   56  A    between atoms: _143  and  _145
REMARK   57  A    between atoms: _145  and  _146
REMARK   58  A    between atoms: _145  and  _148
REMARK   59  A    between atoms: _148  and  _149
REMARK   60  A    between atoms: _154  and  _155
REMARK   61  A    between atoms: _157  and  _159
REMARK   62  A    between atoms: _159  and  _160
REMARK   63  A    between atoms: _159  and  _162
REMARK   64  A    between atoms: _162  and  _163
REMARK   65  A    between atoms: _168  and  _169
REMARK   66  A    between atoms: _171  and  _173
REMARK   67  A    between atoms: _173  and  _174
REMARK   68  A    between atoms: _173  and  _176
REMARK   69  A    between atoms: _179  and  _181
REMARK   70  A    between atoms: _181  and  _182
REMARK   71  A    between atoms: _181  and  _184
REMARK   72  A    between atoms: _184  and  _185
REMARK   73  A    between atoms: _191  and  _192
REMARK   74  A    between atoms: _197  and  _199
REMARK   75  A    between atoms: _199  and  _200
REMARK   76  A    between atoms: _199  and  _202
REMARK   77  A    between atoms: _202  and  _203
REMARK   78  A    between atoms: _205  and  _207
REMARK   79  A    between atoms: _207  and  _208
REMARK   80  A    between atoms: _207  and  _210
REMARK   81  A    between atoms: _210  and  _211
REMARK   82  A    between atoms: _211  and  _212
REMARK   83  A    between atoms: _215  and  _217
REMARK   84  A    between atoms: _217  and  _218
REMARK   85  A    between atoms: _217  and  _220
REMARK   86  A    between atoms: _220  and  _221
REMARK   87  A    between atoms: _226  and  _227
REMARK   88  A    between atoms: _229  and  _231
REMARK   89  A    between atoms: _231  and  _232
REMARK   90  A    between atoms: _231  and  _234
REMARK   91  A    between atoms: _234  and  _235
REMARK   92  A    between atoms: _240  and  _242
REMARK   93  A    between atoms: _242  and  _243
REMARK   94  A    between atoms: _242  and  _245
REMARK   95  A    between atoms: _245  and  _246
REMARK   96  A    between atoms: _251  and  _253
REMARK   97  A    between atoms: _253  and  _254
REMARK   98  A    between atoms: _253  and  _256
REMARK   99  A    between atoms: _256  and  _257
REMARK  100  A    between atoms: _257  and  _258
REMARK  101  A    between atoms: _260  and  _262
REMARK  102  A    between atoms: _262  and  _263
REMARK  103  A    between atoms: _262  and  _265
REMARK  104  A    between atoms: _265  and  _266
REMARK  105  A    between atoms: _271  and  _272
REMARK  106  A    between atoms: _274  and  _276
REMARK  107  A    between atoms: _276  and  _277
REMARK  108  A    between atoms: _276  and  _279
REMARK  109  A    between atoms: _279  and  _280
REMARK  110  A    between atoms: _283  and  _285
REMARK  111  A    between atoms: _285  and  _286
REMARK  112  A    between atoms: _285  and  _288
REMARK  113  A    between atoms: _288  and  _289
REMARK  114  A    between atoms: _289  and  _497
REMARK  115  A    between atoms: _290  and  _292
REMARK  116  A    between atoms: _292  and  _293
REMARK  117  A    between atoms: _292  and  _295
REMARK  118  A    between atoms: _295  and  _296
REMARK  119  A    between atoms: _299  and  _301
REMARK  120  A    between atoms: _301  and  _302
REMARK  121  A    between atoms: _301  and  _304
REMARK  122  A    between atoms: _304  and  _305
REMARK  123  A    between atoms: _310  and  _311
REMARK  124  A    between atoms: _313  and  _315
REMARK  125  A    between atoms: _315  and  _316
REMARK  126  A    between atoms: _315  and  _318
REMARK  127  A    between atoms: _318  and  _319
REMARK  128  A    between atoms: _324  and  _325
REMARK  129  A    between atoms: _327  and  _329
REMARK  130  A    between atoms: _329  and  _330
REMARK  131  A    between atoms: _329  and  _332
REMARK  132  A    between atoms: _332  and  _333
REMARK  133  A    between atoms: _333  and  _334
REMARK  134  A    between atoms: _337  and  _339
REMARK  135  A    between atoms: _339  and  _340
REMARK  136  A    between atoms: _339  and  _342
REMARK  137  A    between atoms: _342  and  _343
REMARK  138  A    between atoms: _348  and  _349
REMARK  139  A    between atoms: _351  and  _353
REMARK  140  A    between atoms: _353  and  _354
REMARK  141  A    between atoms: _353  and  _356
REMARK  142  A    between atoms: _356  and  _357
REMARK  143  A    between atoms: _362  and  _364
REMARK  144  A    between atoms: _364  and  _365
REMARK  145  A    between atoms: _364  and  _367
REMARK  146  A    between atoms: _367  and  _368
REMARK  147  A    between atoms: _371  and  _373
REMARK  148  A    between atoms: _373  and  _374
REMARK  149  A    between atoms: _373  and  _376
REMARK  150  A    between atoms: _376  and  _377
REMARK  151  A    between atoms: _382  and  _384
REMARK  152  A    between atoms: _384  and  _385
REMARK  153  A    between atoms: _384  and  _387
REMARK  154  A    between atoms: _387  and  _388
REMARK  155  A    between atoms: _398  and  _400
REMARK  156  A    between atoms: _400  and  _401
REMARK  157  A    between atoms: _400  and  _403
REMARK  158  A    between atoms: _403  and  _404
REMARK  159  A    between atoms: _410  and  _412
REMARK  160  A    between atoms: _412  and  _413
REMARK  161  A    between atoms: _412  and  _415
REMARK  162  A    between atoms: _415  and  _416
REMARK  163  A    between atoms: _419  and  _421
REMARK  164  A    between atoms: _421  and  _422
REMARK  165  A    between atoms: _421  and  _424
REMARK  166  A    between atoms: _424  and  _425
REMARK  167  A    between atoms: _425  and  _426
REMARK  168  A    between atoms: _426  and  _427
REMARK  169  A    between atoms: _436  and  _438
REMARK  170  A    between atoms: _438  and  _439
REMARK  171  A    between atoms: _438  and  _441
REMARK  172  A    between atoms: _441  and  _442
REMARK  173  A    between atoms: _447  and  _449
REMARK  174  A    between atoms: _449  and  _450
REMARK  175  A    between atoms: _449  and  _452
REMARK  176  A    between atoms: _452  and  _453
REMARK  177  A    between atoms: _453  and  _454
REMARK  178  A    between atoms: _454  and  _455
REMARK  179  A    between atoms: _464  and  _466
REMARK  180  A    between atoms: _466  and  _467
REMARK  181  A    between atoms: _470  and  _472
REMARK  182  A    between atoms: _472  and  _473
REMARK  183  A    between atoms: _475  and  _477
REMARK  184  A    between atoms: _477  and  _478
REMARK  185  A    between atoms: _477  and  _480
REMARK  186  A    between atoms: _480  and  _481
REMARK  187  A    between atoms: _491  and  _493
REMARK  188  A    between atoms: _493  and  _494
REMARK  189  A    between atoms: _493  and  _496
REMARK  190  A    between atoms: _496  and  _497
REMARK  191  A    between atoms: _498  and  _500
REMARK  192  A    between atoms: _500  and  _501
REMARK  193  A    between atoms: _504  and  _506
REMARK  194  A    between atoms: _506  and  _507
REMARK  195  A    between atoms: _506  and  _509
REMARK  196  A    between atoms: _509  and  _510
REMARK  197  A    between atoms: _513  and  _515
REMARK  198  A    between atoms: _515  and  _516
REMARK  199  A    between atoms: _515  and  _518
REMARK  200  A    between atoms: _518  and  _519
REMARK  201  A    between atoms: _524  and  _525
REMARK  202  A    between atoms: _527  and  _529
REMARK  203  A    between atoms: _529  and  _530
REMARK  204  A    between atoms: _529  and  _532
REMARK  205  A    between atoms: _532  and  _533
REMARK  206  A    between atoms: _535  and  _537
REMARK  207  A    between atoms: _537  and  _538
REMARK  208  A    between atoms: _537  and  _540
REMARK  209  A    between atoms: _540  and  _541
REMARK  210  A    between atoms: _547  and  _549
REMARK  211  A    between atoms: _549  and  _550
REMARK  212  A    between atoms: _549  and  _552
REMARK  213  A    between atoms: _552  and  _553
REMARK  214  A    between atoms: _556  and  _558
REMARK  215  A    between atoms: _558  and  _559
REMARK  216  A    between atoms: _558  and  _561
REMARK  217  A    between atoms: _561  and  _562
REMARK  218  A    between atoms: _562  and  _563
REMARK  219  A    between atoms: _565  and  _567
REMARK  220  A    between atoms: _567  and  _568
REMARK  221  A    between atoms: _567  and  _570
REMARK  222  A    between atoms: _570  and  _571
REMARK  223  A    between atoms: _573  and  _575
REMARK  224  A    between atoms: _575  and  _576
REMARK  225  A    between atoms: _575  and  _578
REMARK  226  A    between atoms: _578  and  _579
REMARK  227  A    between atoms: _581  and  _583
REMARK  228  A    between atoms: _583  and  _584
REMARK  229  A    between atoms: _583  and  _586
REMARK  230  A    between atoms: _586  and  _587
REMARK  231  A    between atoms: _592  and  _594
REMARK  232  A    between atoms: _594  and  _595
REMARK  233  A    between atoms: _594  and  _597
REMARK  234  A    between atoms: _597  and  _598
REMARK  235  A    between atoms: _603  and  _605
REMARK  236  A    between atoms: _605  and  _606
REMARK  237  A    between atoms: _605  and  _608
REMARK  238  A    between atoms: _608  and  _609
REMARK  239  A    between atoms: _612  and  _614
REMARK  240  A    between atoms: _614  and  _615
REMARK  241  A    between atoms: _618  and  _620
REMARK  242  A    between atoms: _620  and  _621
REMARK  243  A    between atoms: _620  and  _623
REMARK  244  A    between atoms: _623  and  _624
REMARK  245  A    between atoms: _629  and  _631
REMARK  246  A    between atoms: _631  and  _632
REMARK  247  A    between atoms: _631  and  _634
REMARK  248  A    between atoms: _634  and  _635
REMARK  249  A    between atoms: _640  and  _641
REMARK  250  A    between atoms: _643  and  _645
REMARK  251  A    between atoms: _645  and  _646
REMARK  252  A    between atoms: _645  and  _648
REMARK  253  A    between atoms: _648  and  _649
REMARK  254  A    between atoms: _654  and  _655
REMARK  255  A    between atoms: _657  and  _659
REMARK  256  A    between atoms: _659  and  _660
REMARK  257  A    between atoms: _659  and  _662
REMARK  258  A    between atoms: _665  and  _667
REMARK  259  A    between atoms: _667  and  _668
REMARK  260  A    between atoms: _667  and  _670
REMARK  261  A    between atoms: _670  and  _671
REMARK  262  A    between atoms: _676  and  _678
REMARK  263  A    between atoms: _678  and  _679
REMARK  264  A    between atoms: _682  and  _684
REMARK  265  A    between atoms: _684  and  _685
REMARK  266  A    between atoms: _684  and  _687
REMARK  267  A    between atoms: _687  and  _688
REMARK  268  A    between atoms: _688  and  _689
REMARK  269  A    between atoms: _689  and  _690
REMARK  270  A    between atoms: _699  and  _701
REMARK  271  A    between atoms: _701  and  _702
REMARK  272  A    between atoms: _701  and  _704
REMARK  273  A    between atoms: _704  and  _705
REMARK  274  A    between atoms: _708  and  _710
REMARK  275  A    between atoms: _710  and  _711
REMARK  276  A    between atoms: _710  and  _713
REMARK  277  A    between atoms: _713  and  _714
REMARK  278  A    between atoms: _717  and  _719
REMARK  279  A    between atoms: _719  and  _720
REMARK  280  A    between atoms: _719  and  _722
REMARK  281  A    between atoms: _722  and  _723
REMARK                            x       y       z     vdW  Elec       q    Type
REMARK                         _______ _______ _______ _____ _____    ______ ____
ROOT
ATOM      1  O   HOH     1     -10.076  16.381  14.447  0.00  0.00    +0.000 OA
ENDROOT
TORSDOF 0
REMARK  Name = ../refined-set-2016/1qka/1qka_pocket.pdb
REMARK  281 active torsions:
REMARK  status: ('A' for Active; 'I' for Inactive)
REMARK    1  A    between atoms: _1  and  _3
REMARK    2  A    between atoms: _3  and  _4
REMARK    3  A    between atoms: _3  and  _6
REMARK    4  A    between atoms: _6  and  _7
REMARK    5  A    between atoms: _12  and  _14
REMARK    6  A    between atoms: _14  and  _15
REMARK    7  A    between atoms: _17  and  _19
REMARK    8  A    between atoms: _19  and  _20
REMARK    9  A    between atoms: _19  and  _22
REMARK   10  A    between atoms: _22  and  _23
REMARK   11  A    between atoms: _25  and  _27
REMARK   12  A    between atoms: _27  and  _28
REMARK   13  A    between atoms: _27  and  _30
REMARK   14  A    between atoms: _30  and  _31
REMARK   15  A    between atoms: _31  and  _32
REMARK   16  A    between atoms: _37  and  _39
REMARK   17  A    between atoms: _39  and  _40
REMARK   18  A    between atoms: _39  and  _42
REMARK   19  A    between atoms: _42  and  _43
REMARK   20  A    between atoms: _46  and  _48
REMARK   21  A    between atoms: _48  and  _49
REMARK   22  A    between atoms: _48  and  _51
REMARK   23  A    between atoms: _51  and  _52
REMARK   24  A    between atoms: _52  and  _53
REMARK   25  A    between atoms: _56  and  _58
REMARK   26  A    between atoms: _58  and  _59
REMARK   27  A    between atoms: _61  and  _63
REMARK   28  A    between atoms: _63  and  _64
REMARK   29  A    between atoms: _63  and  _66
REMARK   30  A    between atoms: _70  and  _71
REMARK   31  A    between atoms: _76  and  _78
REMARK   32  A    between atoms: _78  and  _79
REMARK   33  A    between atoms: _78  and  _81
REMARK   34  A    between atoms: _81  and  _82
REMARK   35  A    between atoms: _82  and  _83
REMARK   36  A    between atoms: _86  and  _88
REMARK   37  A    between atoms: _88  and  _89
REMARK   38  A    between atoms: _88  and  _91
REMARK   39  A    between atoms: _91  and  _92
REMARK   40  A    between atoms: _94  and  _96
REMARK   41  A    between atoms: _96  and  _97
REMARK   42  A    between atoms: _96  and  _99
REMARK   43  A    between atoms: _99  and  _100
REMARK   44  A    between atoms: _105  and  _107
REMARK   45  A    between atoms: _107  and  _108
REMARK   46  A    between atoms: _107  and  _110
REMARK   47  A    between atoms: _110  and  _111
REMARK   48  A    between atoms: _111  and  _112
REMARK   49  A    between atoms: _112  and  _113
REMARK   50  A    between atoms: _123  and  _124
REMARK   51  A    between atoms: _129  and  _131
REMARK   52  A    between atoms: _131  and  _132
REMARK   53  A    between atoms: _131  and  _134
REMARK   54  A    between atoms: _134  and  _135
REMARK   55  A    between atoms: _140  and  _141
REMARK   56  A    between atoms: _143  and  _145
REMARK   57  A    between atoms: _145  and  _146
REMARK   58  A    between atoms: _145  and  _148
REMARK   59  A    between atoms: _148  and  _149
REMARK   60  A    between atoms: _154  and  _155
REMARK   61  A    between atoms: _157  and  _159
REMARK   62  A    between atoms: _159  and  _160
REMARK   63  A    between atoms: _159  and  _162
REMARK   64  A    between atoms: _162  and  _163
REMARK   65  A    between atoms: _168  and  _169
REMARK   66  A    between atoms: _171  and  _173
REMARK   67  A    between atoms: _173  and  _174
REMARK   68  A    between atoms: _173  and  _176
REMARK   69  A    between atoms: _179  and  _181
REMARK   70  A    between atoms: _181  and  _182
REMARK   71  A    between atoms: _181  and  _184
REMARK   72  A    between atoms: _184  and  _185
REMARK   73  A    between atoms: _191  and  _192
REMARK   74  A    between atoms: _197  and  _199
REMARK   75  A    between atoms: _199  and  _200
REMARK   76  A    between atoms: _199  and  _202
REMARK   77  A    between atoms: _202  and  _203
REMARK   78  A    between atoms: _205  and  _207
REMARK   79  A    between atoms: _207  and  _208
REMARK   80  A    between atoms: _207  and  _210
REMARK   81  A    between atoms: _210  and  _211
REMARK   82  A    between atoms: _211  and  _212
REMARK   83  A    between atoms: _215  and  _217
REMARK   84  A    between atoms: _217  and  _218
REMARK   85  A    between atoms: _217  and  _220
REMARK   86  A    between atoms: _220  and  _221
REMARK   87  A    between atoms: _226  and  _227
REMARK   88  A    between atoms: _229  and  _231
REMARK   89  A    between atoms: _231  and  _232
REMARK   90  A    between atoms: _231  and  _234
REMARK   91  A    between atoms: _234  and  _235
REMARK   92  A    between atoms: _240  and  _242
REMARK   93  A    between atoms: _242  and  _243
REMARK   94  A    between atoms: _242  and  _245
REMARK   95  A    between atoms: _245  and  _246
REMARK   96  A    between atoms: _251  and  _253
REMARK   97  A    between atoms: _253  and  _254
REMARK   98  A    between atoms: _253  and  _256
REMARK   99  A    between atoms: _256  and  _257
REMARK  100  A    between atoms: _257  and  _258
REMARK  101  A    between atoms: _260  and  _262
REMARK  102  A    between atoms: _262  and  _263
REMARK  103  A    between atoms: _262  and  _265
REMARK  104  A    between atoms: _265  and  _266
REMARK  105  A    between atoms: _271  and  _272
REMARK  106  A    between atoms: _274  and  _276
REMARK  107  A    between atoms: _276  and  _277
REMARK  108  A    between atoms: _276  and  _279
REMARK  109  A    between atoms: _279  and  _280
REMARK  110  A    between atoms: _283  and  _285
REMARK  111  A    between atoms: _285  and  _286
REMARK  112  A    between atoms: _285  and  _288
REMARK  113  A    between atoms: _288  and  _289
REMARK  114  A    between atoms: _289  and  _497
REMARK  115  A    between atoms: _290  and  _292
REMARK  116  A    between atoms: _292  and  _293
REMARK  117  A    between atoms: _292  and  _295
REMARK  118  A    between atoms: _295  and  _296
REMARK  119  A    between atoms: _299  and  _301
REMARK  120  A    between atoms: _301  and  _302
REMARK  121  A    between atoms: _301  and  _304
REMARK  122  A    between atoms: _304  and  _305
REMARK  123  A    between atoms: _310  and  _311
REMARK  124  A    between atoms: _313  and  _315
REMARK  125  A    between atoms: _315  and  _316
REMARK  126  A    between atoms: _315  and  _318
REMARK  127  A    between atoms: _318  and  _319
REMARK  128  A    between atoms: _324  and  _325
REMARK  129  A    between atoms: _327  and  _329
REMARK  130  A    between atoms: _329  and  _330
REMARK  131  A    between atoms: _329  and  _332
REMARK  132  A    between atoms: _332  and  _333
REMARK  133  A    between atoms: _333  and  _334
REMARK  134  A    between atoms: _337  and  _339
REMARK  135  A    between atoms: _339  and  _340
REMARK  136  A    between atoms: _339  and  _342
REMARK  137  A    between atoms: _342  and  _343
REMARK  138  A    between atoms: _348  and  _349
REMARK  139  A    between atoms: _351  and  _353
REMARK  140  A    between atoms: _353  and  _354
REMARK  141  A    between atoms: _353  and  _356
REMARK  142  A    between atoms: _356  and  _357
REMARK  143  A    between atoms: _362  and  _364
REMARK  144  A    between atoms: _364  and  _365
REMARK  145  A    between atoms: _364  and  _367
REMARK  146  A    between atoms: _367  and  _368
REMARK  147  A    between atoms: _371  and  _373
REMARK  148  A    between atoms: _373  and  _374
REMARK  149  A    between atoms: _373  and  _376
REMARK  150  A    between atoms: _376  and  _377
REMARK  151  A    between atoms: _382  and  _384
REMARK  152  A    between atoms: _384  and  _385
REMARK  153  A    between atoms: _384  and  _387
REMARK  154  A    between atoms: _387  and  _388
REMARK  155  A    between atoms: _398  and  _400
REMARK  156  A    between atoms: _400  and  _401
REMARK  157  A    between atoms: _400  and  _403
REMARK  158  A    between atoms: _403  and  _404
REMARK  159  A    between atoms: _410  and  _412
REMARK  160  A    between atoms: _412  and  _413
REMARK  161  A    between atoms: _412  and  _415
REMARK  162  A    between atoms: _415  and  _416
REMARK  163  A    between atoms: _419  and  _421
REMARK  164  A    between atoms: _421  and  _422
REMARK  165  A    between atoms: _421  and  _424
REMARK  166  A    between atoms: _424  and  _425
REMARK  167  A    between atoms: _425  and  _426
REMARK  168  A    between atoms: _426  and  _427
REMARK  169  A    between atoms: _436  and  _438
REMARK  170  A    between atoms: _438  and  _439
REMARK  171  A    between atoms: _438  and  _441
REMARK  172  A    between atoms: _441  and  _442
REMARK  173  A    between atoms: _447  and  _449
REMARK  174  A    between atoms: _449  and  _450
REMARK  175  A    between atoms: _449  and  _452
REMARK  176  A    between atoms: _452  and  _453
REMARK  177  A    between atoms: _453  and  _454
REMARK  178  A    between atoms: _454  and  _455
REMARK  179  A    between atoms: _464  and  _466
REMARK  180  A    between atoms: _466  and  _467
REMARK  181  A    between atoms: _470  and  _472
REMARK  182  A    between atoms: _472  and  _473
REMARK  183  A    between atoms: _475  and  _477
REMARK  184  A    between atoms: _477  and  _478
REMARK  185  A    between atoms: _477  and  _480
REMARK  186  A    between atoms: _480  and  _481
REMARK  187  A    between atoms: _491  and  _493
REMARK  188  A    between atoms: _493  and  _494
REMARK  189  A    between atoms: _493  and  _496
REMARK  190  A    between atoms: _496  and  _497
REMARK  191  A    between atoms: _498  and  _500
REMARK  192  A    between atoms: _500  and  _501
REMARK  193  A    between atoms: _504  and  _506
REMARK  194  A    between atoms: _506  and  _507
REMARK  195  A    between atoms: _506  and  _509
REMARK  196  A    between atoms: _509  and  _510
REMARK  197  A    between atoms: _513  and  _515
REMARK  198  A    between atoms: _515  and  _516
REMARK  199  A    between atoms: _515  and  _518
REMARK  200  A    between atoms: _518  and  _519
REMARK  201  A    between atoms: _524  and  _525
REMARK  202  A    between atoms: _527  and  _529
REMARK  203  A    between atoms: _529  and  _530
REMARK  204  A    between atoms: _529  and  _532
REMARK  205  A    between atoms: _532  and  _533
REMARK  206  A    between atoms: _535  and  _537
REMARK  207  A    between atoms: _537  and  _538
REMARK  208  A    between atoms: _537  and  _540
REMARK  209  A    between atoms: _540  and  _541
REMARK  210  A    between atoms: _547  and  _549
REMARK  211  A    between atoms: _549  and  _550
REMARK  212  A    between atoms: _549  and  _552
REMARK  213  A    between atoms: _552  and  _553
REMARK  214  A    between atoms: _556  and  _558
REMARK  215  A    between atoms: _558  and  _559
REMARK  216  A    between atoms: _558  and  _561
REMARK  217  A    between atoms: _561  and  _562
REMARK  218  A    between atoms: _562  and  _563
REMARK  219  A    between atoms: _565  and  _567
REMARK  220  A    between atoms: _567  and  _568
REMARK  221  A    between atoms: _567  and  _570
REMARK  222  A    between atoms: _570  and  _571
REMARK  223  A    between atoms: _573  and  _575
REMARK  224  A    between atoms: _575  and  _576
REMARK  225  A    between atoms: _575  and  _578
REMARK  226  A    between atoms: _578  and  _579
REMARK  227  A    between atoms: _581  and  _583
REMARK  228  A    between atoms: _583  and  _584
REMARK  229  A    between atoms: _583  and  _586
REMARK  230  A    between atoms: _586  and  _587
REMARK  231  A    between atoms: _592  and  _594
REMARK  232  A    between atoms: _594  and  _595
REMARK  233  A    between atoms: _594  and  _597
REMARK  234  A    between atoms: _597  and  _598
REMARK  235  A    between atoms: _603  and  _605
REMARK  236  A    between atoms: _605  and  _606
REMARK  237  A    between atoms: _605  and  _608
REMARK  238  A    between atoms: _608  and  _609
REMARK  239  A    between atoms: _612  and  _614
REMARK  240  A    between atoms: _614  and  _615
REMARK  241  A    between atoms: _618  and  _620
REMARK  242  A    between atoms: _620  and  _621
REMARK  243  A    between atoms: _620  and  _623
REMARK  244  A    between atoms: _623  and  _624
REMARK  245  A    between atoms: _629  and  _631
REMARK  246  A    between atoms: _631  and  _632
REMARK  247  A    between atoms: _631  and  _634
REMARK  248  A    between atoms: _634  and  _635
REMARK  249  A    between atoms: _640  and  _641
REMARK  250  A    between atoms: _643  and  _645
REMARK  251  A    between atoms: _645  and  _646
REMARK  252  A    between atoms: _645  and  _648
REMARK  253  A    between atoms: _648  and  _649
REMARK  254  A    between atoms: _654  and  _655
REMARK  255  A    between atoms: _657  and  _659
REMARK  256  A    between atoms: _659  and  _660
REMARK  257  A    between atoms: _659  and  _662
REMARK  258  A    between atoms: _665  and  _667
REMARK  259  A    between atoms: _667  and  _668
REMARK  260  A    between atoms: _667  and  _670
REMARK  261  A    between atoms: _670  and  _671
REMARK  262  A    between atoms: _676  and  _678
REMARK  263  A    between atoms: _678  and  _679
REMARK  264  A    between atoms: _682  and  _684
REMARK  265  A    between atoms: _684  and  _685
REMARK  266  A    between atoms: _684  and  _687
REMARK  267  A    between atoms: _687  and  _688
REMARK  268  A    between atoms: _688  and  _689
REMARK  269  A    between atoms: _689  and  _690
REMARK  270  A    between atoms: _699  and  _701
REMARK  271  A    between atoms: _701  and  _702
REMARK  272  A    between atoms: _701  and  _704
REMARK  273  A    between atoms: _704  and  _705
REMARK  274  A    between atoms: _708  and  _710
REMARK  275  A    between atoms: _710  and  _711
REMARK  276  A    between atoms: _710  and  _713
REMARK  277  A    between atoms: _713  and  _714
REMARK  278  A    between atoms: _717  and  _719
REMARK  279  A    between atoms: _719  and  _720
REMARK  280  A    between atoms: _719  and  _722
REMARK  281  A    between atoms: _722  and  _723
REMARK                            x       y       z     vdW  Elec       q    Type
REMARK                         _______ _______ _______ _____ _____    ______ ____
ROOT
ATOM      1  O   HOH     1       1.559  14.570  11.290  0.00  0.00    +0.000 OA
ENDROOT
TORSDOF 0
REMARK  Name = ../refined-set-2016/1qka/1qka_pocket.pdb
REMARK  281 active torsions:
REMARK  status: ('A' for Active; 'I' for Inactive)
REMARK    1  A    between atoms: _1  and  _3
REMARK    2  A    between atoms: _3  and  _4
REMARK    3  A    between atoms: _3  and  _6
REMARK    4  A    between atoms: _6  and  _7
REMARK    5  A    between atoms: _12  and  _14
REMARK    6  A    between atoms: _14  and  _15
REMARK    7  A    between atoms: _17  and  _19
REMARK    8  A    between atoms: _19  and  _20
REMARK    9  A    between atoms: _19  and  _22
REMARK   10  A    between atoms: _22  and  _23
REMARK   11  A    between atoms: _25  and  _27
REMARK   12  A    between atoms: _27  and  _28
REMARK   13  A    between atoms: _27  and  _30
REMARK   14  A    between atoms: _30  and  _31
REMARK   15  A    between atoms: _31  and  _32
REMARK   16  A    between atoms: _37  and  _39
REMARK   17  A    between atoms: _39  and  _40
REMARK   18  A    between atoms: _39  and  _42
REMARK   19  A    between atoms: _42  and  _43
REMARK   20  A    between atoms: _46  and  _48
REMARK   21  A    between atoms: _48  and  _49
REMARK   22  A    between atoms: _48  and  _51
REMARK   23  A    between atoms: _51  and  _52
REMARK   24  A    between atoms: _52  and  _53
REMARK   25  A    between atoms: _56  and  _58
REMARK   26  A    between atoms: _58  and  _59
REMARK   27  A    between atoms: _61  and  _63
REMARK   28  A    between atoms: _63  and  _64
REMARK   29  A    between atoms: _63  and  _66
REMARK   30  A    between atoms: _70  and  _71
REMARK   31  A    between atoms: _76  and  _78
REMARK   32  A    between atoms: _78  and  _79
REMARK   33  A    between atoms: _78  and  _81
REMARK   34  A    between atoms: _81  and  _82
REMARK   35  A    between atoms: _82  and  _83
REMARK   36  A    between atoms: _86  and  _88
REMARK   37  A    between atoms: _88  and  _89
REMARK   38  A    between atoms: _88  and  _91
REMARK   39  A    between atoms: _91  and  _92
REMARK   40  A    between atoms: _94  and  _96
REMARK   41  A    between atoms: _96  and  _97
REMARK   42  A    between atoms: _96  and  _99
REMARK   43  A    between atoms: _99  and  _100
REMARK   44  A    between atoms: _105  and  _107
REMARK   45  A    between atoms: _107  and  _108
REMARK   46  A    between atoms: _107  and  _110
REMARK   47  A    between atoms: _110  and  _111
REMARK   48  A    between atoms: _111  and  _112
REMARK   49  A    between atoms: _112  and  _113
REMARK   50  A    between atoms: _123  and  _124
REMARK   51  A    between atoms: _129  and  _131
REMARK   52  A    between atoms: _131  and  _132
REMARK   53  A    between atoms: _131  and  _134
REMARK   54  A    between atoms: _134  and  _135
REMARK   55  A    between atoms: _140  and  _141
REMARK   56  A    between atoms: _143  and  _145
REMARK   57  A    between atoms: _145  and  _146
REMARK   58  A    between atoms: _145  and  _148
REMARK   59  A    between atoms: _148  and  _149
REMARK   60  A    between atoms: _154  and  _155
REMARK   61  A    between atoms: _157  and  _159
REMARK   62  A    between atoms: _159  and  _160
REMARK   63  A    between atoms: _159  and  _162
REMARK   64  A    between atoms: _162  and  _163
REMARK   65  A    between atoms: _168  and  _169
REMARK   66  A    between atoms: _171  and  _173
REMARK   67  A    between atoms: _173  and  _174
REMARK   68  A    between atoms: _173  and  _176
REMARK   69  A    between atoms: _179  and  _181
REMARK   70  A    between atoms: _181  and  _182
REMARK   71  A    between atoms: _181  and  _184
REMARK   72  A    between atoms: _184  and  _185
REMARK   73  A    between atoms: _191  and  _192
REMARK   74  A    between atoms: _197  and  _199
REMARK   75  A    between atoms: _199  and  _200
REMARK   76  A    between atoms: _199  and  _202
REMARK   77  A    between atoms: _202  and  _203
REMARK   78  A    between atoms: _205  and  _207
REMARK   79  A    between atoms: _207  and  _208
REMARK   80  A    between atoms: _207  and  _210
REMARK   81  A    between atoms: _210  and  _211
REMARK   82  A    between atoms: _211  and  _212
REMARK   83  A    between atoms: _215  and  _217
REMARK   84  A    between atoms: _217  and  _218
REMARK   85  A    between atoms: _217  and  _220
REMARK   86  A    between atoms: _220  and  _221
REMARK   87  A    between atoms: _226  and  _227
REMARK   88  A    between atoms: _229  and  _231
REMARK   89  A    between atoms: _231  and  _232
REMARK   90  A    between atoms: _231  and  _234
REMARK   91  A    between atoms: _234  and  _235
REMARK   92  A    between atoms: _240  and  _242
REMARK   93  A    between atoms: _242  and  _243
REMARK   94  A    between atoms: _242  and  _245
REMARK   95  A    between atoms: _245  and  _246
REMARK   96  A    between atoms: _251  and  _253
REMARK   97  A    between atoms: _253  and  _254
REMARK   98  A    between atoms: _253  and  _256
REMARK   99  A    between atoms: _256  and  _257
REMARK  100  A    between atoms: _257  and  _258
REMARK  101  A    between atoms: _260  and  _262
REMARK  102  A    between atoms: _262  and  _263
REMARK  103  A    between atoms: _262  and  _265
REMARK  104  A    between atoms: _265  and  _266
REMARK  105  A    between atoms: _271  and  _272
REMARK  106  A    between atoms: _274  and  _276
REMARK  107  A    between atoms: _276  and  _277
REMARK  108  A    between atoms: _276  and  _279
REMARK  109  A    between atoms: _279  and  _280
REMARK  110  A    between atoms: _283  and  _285
REMARK  111  A    between atoms: _285  and  _286
REMARK  112  A    between atoms: _285  and  _288
REMARK  113  A    between atoms: _288  and  _289
REMARK  114  A    between atoms: _289  and  _497
REMARK  115  A    between atoms: _290  and  _292
REMARK  116  A    between atoms: _292  and  _293
REMARK  117  A    between atoms: _292  and  _295
REMARK  118  A    between atoms: _295  and  _296
REMARK  119  A    between atoms: _299  and  _301
REMARK  120  A    between atoms: _301  and  _302
REMARK  121  A    between atoms: _301  and  _304
REMARK  122  A    between atoms: _304  and  _305
REMARK  123  A    between atoms: _310  and  _311
REMARK  124  A    between atoms: _313  and  _315
REMARK  125  A    between atoms: _315  and  _316
REMARK  126  A    between atoms: _315  and  _318
REMARK  127  A    between atoms: _318  and  _319
REMARK  128  A    between atoms: _324  and  _325
REMARK  129  A    between atoms: _327  and  _329
REMARK  130  A    between atoms: _329  and  _330
REMARK  131  A    between atoms: _329  and  _332
REMARK  132  A    between atoms: _332  and  _333
REMARK  133  A    between atoms: _333  and  _334
REMARK  134  A    between atoms: _337  and  _339
REMARK  135  A    between atoms: _339  and  _340
REMARK  136  A    between atoms: _339  and  _342
REMARK  137  A    between atoms: _342  and  _343
REMARK  138  A    between atoms: _348  and  _349
REMARK  139  A    between atoms: _351  and  _353
REMARK  140  A    between atoms: _353  and  _354
REMARK  141  A    between atoms: _353  and  _356
REMARK  142  A    between atoms: _356  and  _357
REMARK  143  A    between atoms: _362  and  _364
REMARK  144  A    between atoms: _364  and  _365
REMARK  145  A    between atoms: _364  and  _367
REMARK  146  A    between atoms: _367  and  _368
REMARK  147  A    between atoms: _371  and  _373
REMARK  148  A    between atoms: _373  and  _374
REMARK  149  A    between atoms: _373  and  _376
REMARK  150  A    between atoms: _376  and  _377
REMARK  151  A    between atoms: _382  and  _384
REMARK  152  A    between atoms: _384  and  _385
REMARK  153  A    between atoms: _384  and  _387
REMARK  154  A    between atoms: _387  and  _388
REMARK  155  A    between atoms: _398  and  _400
REMARK  156  A    between atoms: _400  and  _401
REMARK  157  A    between atoms: _400  and  _403
REMARK  158  A    between atoms: _403  and  _404
REMARK  159  A    between atoms: _410  and  _412
REMARK  160  A    between atoms: _412  and  _413
REMARK  161  A    between atoms: _412  and  _415
REMARK  162  A    between atoms: _415  and  _416
REMARK  163  A    between atoms: _419  and  _421
REMARK  164  A    between atoms: _421  and  _422
REMARK  165  A    between atoms: _421  and  _424
REMARK  166  A    between atoms: _424  and  _425
REMARK  167  A    between atoms: _425  and  _426
REMARK  168  A    between atoms: _426  and  _427
REMARK  169  A    between atoms: _436  and  _438
REMARK  170  A    between atoms: _438  and  _439
REMARK  171  A    between atoms: _438  and  _441
REMARK  172  A    between atoms: _441  and  _442
REMARK  173  A    between atoms: _447  and  _449
REMARK  174  A    between atoms: _449  and  _450
REMARK  175  A    between atoms: _449  and  _452
REMARK  176  A    between atoms: _452  and  _453
REMARK  177  A    between atoms: _453  and  _454
REMARK  178  A    between atoms: _454  and  _455
REMARK  179  A    between atoms: _464  and  _466
REMARK  180  A    between atoms: _466  and  _467
REMARK  181  A    between atoms: _470  and  _472
REMARK  182  A    between atoms: _472  and  _473
REMARK  183  A    between atoms: _475  and  _477
REMARK  184  A    between atoms: _477  and  _478
REMARK  185  A    between atoms: _477  and  _480
REMARK  186  A    between atoms: _480  and  _481
REMARK  187  A    between atoms: _491  and  _493
REMARK  188  A    between atoms: _493  and  _494
REMARK  189  A    between atoms: _493  and  _496
REMARK  190  A    between atoms: _496  and  _497
REMARK  191  A    between atoms: _498  and  _500
REMARK  192  A    between atoms: _500  and  _501
REMARK  193  A    between atoms: _504  and  _506
REMARK  194  A    between atoms: _506  and  _507
REMARK  195  A    between atoms: _506  and  _509
REMARK  196  A    between atoms: _509  and  _510
REMARK  197  A    between atoms: _513  and  _515
REMARK  198  A    between atoms: _515  and  _516
REMARK  199  A    between atoms: _515  and  _518
REMARK  200  A    between atoms: _518  and  _519
REMARK  201  A    between atoms: _524  and  _525
REMARK  202  A    between atoms: _527  and  _529
REMARK  203  A    between atoms: _529  and  _530
REMARK  204  A    between atoms: _529  and  _532
REMARK  205  A    between atoms: _532  and  _533
REMARK  206  A    between atoms: _535  and  _537
REMARK  207  A    between atoms: _537  and  _538
REMARK  208  A    between atoms: _537  and  _540
REMARK  209  A    between atoms: _540  and  _541
REMARK  210  A    between atoms: _547  and  _549
REMARK  211  A    between atoms: _549  and  _550
REMARK  212  A    between atoms: _549  and  _552
REMARK  213  A    between atoms: _552  and  _553
REMARK  214  A    between atoms: _556  and  _558
REMARK  215  A    between atoms: _558  and  _559
REMARK  216  A    between atoms: _558  and  _561
REMARK  217  A    between atoms: _561  and  _562
REMARK  218  A    between atoms: _562  and  _563
REMARK  219  A    between atoms: _565  and  _567
REMARK  220  A    between atoms: _567  and  _568
REMARK  221  A    between atoms: _567  and  _570
REMARK  222  A    between atoms: _570  and  _571
REMARK  223  A    between atoms: _573  and  _575
REMARK  224  A    between atoms: _575  and  _576
REMARK  225  A    between atoms: _575  and  _578
REMARK  226  A    between atoms: _578  and  _579
REMARK  227  A    between atoms: _581  and  _583
REMARK  228  A    between atoms: _583  and  _584
REMARK  229  A    between atoms: _583  and  _586
REMARK  230  A    between atoms: _586  and  _587
REMARK  231  A    between atoms: _592  and  _594
REMARK  232  A    between atoms: _594  and  _595
REMARK  233  A    between atoms: _594  and  _597
REMARK  234  A    between atoms: _597  and  _598
REMARK  235  A    between atoms: _603  and  _605
REMARK  236  A    between atoms: _605  and  _606
REMARK  237  A    between atoms: _605  and  _608
REMARK  238  A    between atoms: _608  and  _609
REMARK  239  A    between atoms: _612  and  _614
REMARK  240  A    between atoms: _614  and  _615
REMARK  241  A    between atoms: _618  and  _620
REMARK  242  A    between atoms: _620  and  _621
REMARK  243  A    between atoms: _620  and  _623
REMARK  244  A    between atoms: _623  and  _624
REMARK  245  A    between atoms: _629  and  _631
REMARK  246  A    between atoms: _631  and  _632
REMARK  247  A    between atoms: _631  and  _634
REMARK  248  A    between atoms: _634  and  _635
REMARK  249  A    between atoms: _640  and  _641
REMARK  250  A    between atoms: _643  and  _645
REMARK  251  A    between atoms: _645  and  _646
REMARK  252  A    between atoms: _645  and  _648
REMARK  253  A    between atoms: _648  and  _649
REMARK  254  A    between atoms: _654  and  _655
REMARK  255  A    between atoms: _657  and  _659
REMARK  256  A    between atoms: _659  and  _660
REMARK  257  A    between atoms: _659  and  _662
REMARK  258  A    between atoms: _665  and  _667
REMARK  259  A    between atoms: _667  and  _668
REMARK  260  A    between atoms: _667  and  _670
REMARK  261  A    between atoms: _670  and  _671
REMARK  262  A    between atoms: _676  and  _678
REMARK  263  A    between atoms: _678  and  _679
REMARK  264  A    between atoms: _682  and  _684
REMARK  265  A    between atoms: _684  and  _685
REMARK  266  A    between atoms: _684  and  _687
REMARK  267  A    between atoms: _687  and  _688
REMARK  268  A    between atoms: _688  and  _689
REMARK  269  A    between atoms: _689  and  _690
REMARK  270  A    between atoms: _699  and  _701
REMARK  271  A    between atoms: _701  and  _702
REMARK  272  A    between atoms: _701  and  _704
REMARK  273  A    between atoms: _704  and  _705
REMARK  274  A    between atoms: _708  and  _710
REMARK  275  A    between atoms: _710  and  _711
REMARK  276  A    between atoms: _710  and  _713
REMARK  277  A    between atoms: _713  and  _714
REMARK  278  A    between atoms: _717  and  _719
REMARK  279  A    between atoms: _719  and  _720
REMARK  280  A    between atoms: _719  and  _722
REMARK  281  A    between atoms: _722  and  _723
REMARK                            x       y       z     vdW  Elec       q    Type
REMARK                         _______ _______ _______ _____ _____    ______ ____
ROOT
ATOM      1  O   HOH     1       3.730  20.152  21.112  0.00  0.00    +0.000 OA
ENDROOT
TORSDOF 0
REMARK  Name = ../refined-set-2016/1qka/1qka_pocket.pdb
REMARK  281 active torsions:
REMARK  status: ('A' for Active; 'I' for Inactive)
REMARK    1  A    between atoms: _1  and  _3
REMARK    2  A    between atoms: _3  and  _4
REMARK    3  A    between atoms: _3  and  _6
REMARK    4  A    between atoms: _6  and  _7
REMARK    5  A    between atoms: _12  and  _14
REMARK    6  A    between atoms: _14  and  _15
REMARK    7  A    between atoms: _17  and  _19
REMARK    8  A    between atoms: _19  and  _20
REMARK    9  A    between atoms: _19  and  _22
REMARK   10  A    between atoms: _22  and  _23
REMARK   11  A    between atoms: _25  and  _27
REMARK   12  A    between atoms: _27  and  _28
REMARK   13  A    between atoms: _27  and  _30
REMARK   14  A    between atoms: _30  and  _31
REMARK   15  A    between atoms: _31  and  _32
REMARK   16  A    between atoms: _37  and  _39
REMARK   17  A    between atoms: _39  and  _40
REMARK   18  A    between atoms: _39  and  _42
REMARK   19  A    between atoms: _42  and  _43
REMARK   20  A    between atoms: _46  and  _48
REMARK   21  A    between atoms: _48  and  _49
REMARK   22  A    between atoms: _48  and  _51
REMARK   23  A    between atoms: _51  and  _52
REMARK   24  A    between atoms: _52  and  _53
REMARK   25  A    between atoms: _56  and  _58
REMARK   26  A    between atoms: _58  and  _59
REMARK   27  A    between atoms: _61  and  _63
REMARK   28  A    between atoms: _63  and  _64
REMARK   29  A    between atoms: _63  and  _66
REMARK   30  A    between atoms: _70  and  _71
REMARK   31  A    between atoms: _76  and  _78
REMARK   32  A    between atoms: _78  and  _79
REMARK   33  A    between atoms: _78  and  _81
REMARK   34  A    between atoms: _81  and  _82
REMARK   35  A    between atoms: _82  and  _83
REMARK   36  A    between atoms: _86  and  _88
REMARK   37  A    between atoms: _88  and  _89
REMARK   38  A    between atoms: _88  and  _91
REMARK   39  A    between atoms: _91  and  _92
REMARK   40  A    between atoms: _94  and  _96
REMARK   41  A    between atoms: _96  and  _97
REMARK   42  A    between atoms: _96  and  _99
REMARK   43  A    between atoms: _99  and  _100
REMARK   44  A    between atoms: _105  and  _107
REMARK   45  A    between atoms: _107  and  _108
REMARK   46  A    between atoms: _107  and  _110
REMARK   47  A    between atoms: _110  and  _111
REMARK   48  A    between atoms: _111  and  _112
REMARK   49  A    between atoms: _112  and  _113
REMARK   50  A    between atoms: _123  and  _124
REMARK   51  A    between atoms: _129  and  _131
REMARK   52  A    between atoms: _131  and  _132
REMARK   53  A    between atoms: _131  and  _134
REMARK   54  A    between atoms: _134  and  _135
REMARK   55  A    between atoms: _140  and  _141
REMARK   56  A    between atoms: _143  and  _145
REMARK   57  A    between atoms: _145  and  _146
REMARK   58  A    between atoms: _145  and  _148
REMARK   59  A    between atoms: _148  and  _149
REMARK   60  A    between atoms: _154  and  _155
REMARK   61  A    between atoms: _157  and  _159
REMARK   62  A    between atoms: _159  and  _160
REMARK   63  A    between atoms: _159  and  _162
REMARK   64  A    between atoms: _162  and  _163
REMARK   65  A    between atoms: _168  and  _169
REMARK   66  A    between atoms: _171  and  _173
REMARK   67  A    between atoms: _173  and  _174
REMARK   68  A    between atoms: _173  and  _176
REMARK   69  A    between atoms: _179  and  _181
REMARK   70  A    between atoms: _181  and  _182
REMARK   71  A    between atoms: _181  and  _184
REMARK   72  A    between atoms: _184  and  _185
REMARK   73  A    between atoms: _191  and  _192
REMARK   74  A    between atoms: _197  and  _199
REMARK   75  A    between atoms: _199  and  _200
REMARK   76  A    between atoms: _199  and  _202
REMARK   77  A    between atoms: _202  and  _203
REMARK   78  A    between atoms: _205  and  _207
REMARK   79  A    between atoms: _207  and  _208
REMARK   80  A    between atoms: _207  and  _210
REMARK   81  A    between atoms: _210  and  _211
REMARK   82  A    between atoms: _211  and  _212
REMARK   83  A    between atoms: _215  and  _217
REMARK   84  A    between atoms: _217  and  _218
REMARK   85  A    between atoms: _217  and  _220
REMARK   86  A    between atoms: _220  and  _221
REMARK   87  A    between atoms: _226  and  _227
REMARK   88  A    between atoms: _229  and  _231
REMARK   89  A    between atoms: _231  and  _232
REMARK   90  A    between atoms: _231  and  _234
REMARK   91  A    between atoms: _234  and  _235
REMARK   92  A    between atoms: _240  and  _242
REMARK   93  A    between atoms: _242  and  _243
REMARK   94  A    between atoms: _242  and  _245
REMARK   95  A    between atoms: _245  and  _246
REMARK   96  A    between atoms: _251  and  _253
REMARK   97  A    between atoms: _253  and  _254
REMARK   98  A    between atoms: _253  and  _256
REMARK   99  A    between atoms: _256  and  _257
REMARK  100  A    between atoms: _257  and  _258
REMARK  101  A    between atoms: _260  and  _262
REMARK  102  A    between atoms: _262  and  _263
REMARK  103  A    between atoms: _262  and  _265
REMARK  104  A    between atoms: _265  and  _266
REMARK  105  A    between atoms: _271  and  _272
REMARK  106  A    between atoms: _274  and  _276
REMARK  107  A    between atoms: _276  and  _277
REMARK  108  A    between atoms: _276  and  _279
REMARK  109  A    between atoms: _279  and  _280
REMARK  110  A    between atoms: _283  and  _285
REMARK  111  A    between atoms: _285  and  _286
REMARK  112  A    between atoms: _285  and  _288
REMARK  113  A    between atoms: _288  and  _289
REMARK  114  A    between atoms: _289  and  _497
REMARK  115  A    between atoms: _290  and  _292
REMARK  116  A    between atoms: _292  and  _293
REMARK  117  A    between atoms: _292  and  _295
REMARK  118  A    between atoms: _295  and  _296
REMARK  119  A    between atoms: _299  and  _301
REMARK  120  A    between atoms: _301  and  _302
REMARK  121  A    between atoms: _301  and  _304
REMARK  122  A    between atoms: _304  and  _305
REMARK  123  A    between atoms: _310  and  _311
REMARK  124  A    between atoms: _313  and  _315
REMARK  125  A    between atoms: _315  and  _316
REMARK  126  A    between atoms: _315  and  _318
REMARK  127  A    between atoms: _318  and  _319
REMARK  128  A    between atoms: _324  and  _325
REMARK  129  A    between atoms: _327  and  _329
REMARK  130  A    between atoms: _329  and  _330
REMARK  131  A    between atoms: _329  and  _332
REMARK  132  A    between atoms: _332  and  _333
REMARK  133  A    between atoms: _333  and  _334
REMARK  134  A    between atoms: _337  and  _339
REMARK  135  A    between atoms: _339  and  _340
REMARK  136  A    between atoms: _339  and  _342
REMARK  137  A    between atoms: _342  and  _343
REMARK  138  A    between atoms: _348  and  _349
REMARK  139  A    between atoms: _351  and  _353
REMARK  140  A    between atoms: _353  and  _354
REMARK  141  A    between atoms: _353  and  _356
REMARK  142  A    between atoms: _356  and  _357
REMARK  143  A    between atoms: _362  and  _364
REMARK  144  A    between atoms: _364  and  _365
REMARK  145  A    between atoms: _364  and  _367
REMARK  146  A    between atoms: _367  and  _368
REMARK  147  A    between atoms: _371  and  _373
REMARK  148  A    between atoms: _373  and  _374
REMARK  149  A    between atoms: _373  and  _376
REMARK  150  A    between atoms: _376  and  _377
REMARK  151  A    between atoms: _382  and  _384
REMARK  152  A    between atoms: _384  and  _385
REMARK  153  A    between atoms: _384  and  _387
REMARK  154  A    between atoms: _387  and  _388
REMARK  155  A    between atoms: _398  and  _400
REMARK  156  A    between atoms: _400  and  _401
REMARK  157  A    between atoms: _400  and  _403
REMARK  158  A    between atoms: _403  and  _404
REMARK  159  A    between atoms: _410  and  _412
REMARK  160  A    between atoms: _412  and  _413
REMARK  161  A    between atoms: _412  and  _415
REMARK  162  A    between atoms: _415  and  _416
REMARK  163  A    between atoms: _419  and  _421
REMARK  164  A    between atoms: _421  and  _422
REMARK  165  A    between atoms: _421  and  _424
REMARK  166  A    between atoms: _424  and  _425
REMARK  167  A    between atoms: _425  and  _426
REMARK  168  A    between atoms: _426  and  _427
REMARK  169  A    between atoms: _436  and  _438
REMARK  170  A    between atoms: _438  and  _439
REMARK  171  A    between atoms: _438  and  _441
REMARK  172  A    between atoms: _441  and  _442
REMARK  173  A    between atoms: _447  and  _449
REMARK  174  A    between atoms: _449  and  _450
REMARK  175  A    between atoms: _449  and  _452
REMARK  176  A    between atoms: _452  and  _453
REMARK  177  A    between atoms: _453  and  _454
REMARK  178  A    between atoms: _454  and  _455
REMARK  179  A    between atoms: _464  and  _466
REMARK  180  A    between atoms: _466  and  _467
REMARK  181  A    between atoms: _470  and  _472
REMARK  182  A    between atoms: _472  and  _473
REMARK  183  A    between atoms: _475  and  _477
REMARK  184  A    between atoms: _477  and  _478
REMARK  185  A    between atoms: _477  and  _480
REMARK  186  A    between atoms: _480  and  _481
REMARK  187  A    between atoms: _491  and  _493
REMARK  188  A    between atoms: _493  and  _494
REMARK  189  A    between atoms: _493  and  _496
REMARK  190  A    between atoms: _496  and  _497
REMARK  191  A    between atoms: _498  and  _500
REMARK  192  A    between atoms: _500  and  _501
REMARK  193  A    between atoms: _504  and  _506
REMARK  194  A    between atoms: _506  and  _507
REMARK  195  A    between atoms: _506  and  _509
REMARK  196  A    between atoms: _509  and  _510
REMARK  197  A    between atoms: _513  and  _515
REMARK  198  A    between atoms: _515  and  _516
REMARK  199  A    between atoms: _515  and  _518
REMARK  200  A    between atoms: _518  and  _519
REMARK  201  A    between atoms: _524  and  _525
REMARK  202  A    between atoms: _527  and  _529
REMARK  203  A    between atoms: _529  and  _530
REMARK  204  A    between atoms: _529  and  _532
REMARK  205  A    between atoms: _532  and  _533
REMARK  206  A    between atoms: _535  and  _537
REMARK  207  A    between atoms: _537  and  _538
REMARK  208  A    between atoms: _537  and  _540
REMARK  209  A    between atoms: _540  and  _541
REMARK  210  A    between atoms: _547  and  _549
REMARK  211  A    between atoms: _549  and  _550
REMARK  212  A    between atoms: _549  and  _552
REMARK  213  A    between atoms: _552  and  _553
REMARK  214  A    between atoms: _556  and  _558
REMARK  215  A    between atoms: _558  and  _559
REMARK  216  A    between atoms: _558  and  _561
REMARK  217  A    between atoms: _561  and  _562
REMARK  218  A    between atoms: _562  and  _563
REMARK  219  A    between atoms: _565  and  _567
REMARK  220  A    between atoms: _567  and  _568
REMARK  221  A    between atoms: _567  and  _570
REMARK  222  A    between atoms: _570  and  _571
REMARK  223  A    between atoms: _573  and  _575
REMARK  224  A    between atoms: _575  and  _576
REMARK  225  A    between atoms: _575  and  _578
REMARK  226  A    between atoms: _578  and  _579
REMARK  227  A    between atoms: _581  and  _583
REMARK  228  A    between atoms: _583  and  _584
REMARK  229  A    between atoms: _583  and  _586
REMARK  230  A    between atoms: _586  and  _587
REMARK  231  A    between atoms: _592  and  _594
REMARK  232  A    between atoms: _594  and  _595
REMARK  233  A    between atoms: _594  and  _597
REMARK  234  A    between atoms: _597  and  _598
REMARK  235  A    between atoms: _603  and  _605
REMARK  236  A    between atoms: _605  and  _606
REMARK  237  A    between atoms: _605  and  _608
REMARK  238  A    between atoms: _608  and  _609
REMARK  239  A    between atoms: _612  and  _614
REMARK  240  A    between atoms: _614  and  _615
REMARK  241  A    between atoms: _618  and  _620
REMARK  242  A    between atoms: _620  and  _621
REMARK  243  A    between atoms: _620  and  _623
REMARK  244  A    between atoms: _623  and  _624
REMARK  245  A    between atoms: _629  and  _631
REMARK  246  A    between atoms: _631  and  _632
REMARK  247  A    between atoms: _631  and  _634
REMARK  248  A    between atoms: _634  and  _635
REMARK  249  A    between atoms: _640  and  _641
REMARK  250  A    between atoms: _643  and  _645
REMARK  251  A    between atoms: _645  and  _646
REMARK  252  A    between atoms: _645  and  _648
REMARK  253  A    between atoms: _648  and  _649
REMARK  254  A    between atoms: _654  and  _655
REMARK  255  A    between atoms: _657  and  _659
REMARK  256  A    between atoms: _659  and  _660
REMARK  257  A    between atoms: _659  and  _662
REMARK  258  A    between atoms: _665  and  _667
REMARK  259  A    between atoms: _667  and  _668
REMARK  260  A    between atoms: _667  and  _670
REMARK  261  A    between atoms: _670  and  _671
REMARK  262  A    between atoms: _676  and  _678
REMARK  263  A    between atoms: _678  and  _679
REMARK  264  A    between atoms: _682  and  _684
REMARK  265  A    between atoms: _684  and  _685
REMARK  266  A    between atoms: _684  and  _687
REMARK  267  A    between atoms: _687  and  _688
REMARK  268  A    between atoms: _688  and  _689
REMARK  269  A    between atoms: _689  and  _690
REMARK  270  A    between atoms: _699  and  _701
REMARK  271  A    between atoms: _701  and  _702
REMARK  272  A    between atoms: _701  and  _704
REMARK  273  A    between atoms: _704  and  _705
REMARK  274  A    between atoms: _708  and  _710
REMARK  275  A    between atoms: _710  and  _711
REMARK  276  A    between atoms: _710  and  _713
REMARK  277  A    between atoms: _713  and  _714
REMARK  278  A    between atoms: _717  and  _719
REMARK  279  A    between atoms: _719  and  _720
REMARK  280  A    between atoms: _719  and  _722
REMARK  281  A    between atoms: _722  and  _723
REMARK                            x       y       z     vdW  Elec       q    Type
REMARK                         _______ _______ _______ _____ _____    ______ ____
ROOT
ATOM      1  O   HOH     1       5.653  20.275  25.223  0.00  0.00    +0.000 OA
ENDROOT
TORSDOF 0
REMARK  Name = ../refined-set-2016/1qka/1qka_pocket.pdb
REMARK  281 active torsions:
REMARK  status: ('A' for Active; 'I' for Inactive)
REMARK    1  A    between atoms: _1  and  _3
REMARK    2  A    between atoms: _3  and  _4
REMARK    3  A    between atoms: _3  and  _6
REMARK    4  A    between atoms: _6  and  _7
REMARK    5  A    between atoms: _12  and  _14
REMARK    6  A    between atoms: _14  and  _15
REMARK    7  A    between atoms: _17  and  _19
REMARK    8  A    between atoms: _19  and  _20
REMARK    9  A    between atoms: _19  and  _22
REMARK   10  A    between atoms: _22  and  _23
REMARK   11  A    between atoms: _25  and  _27
REMARK   12  A    between atoms: _27  and  _28
REMARK   13  A    between atoms: _27  and  _30
REMARK   14  A    between atoms: _30  and  _31
REMARK   15  A    between atoms: _31  and  _32
REMARK   16  A    between atoms: _37  and  _39
REMARK   17  A    between atoms: _39  and  _40
REMARK   18  A    between atoms: _39  and  _42
REMARK   19  A    between atoms: _42  and  _43
REMARK   20  A    between atoms: _46  and  _48
REMARK   21  A    between atoms: _48  and  _49
REMARK   22  A    between atoms: _48  and  _51
REMARK   23  A    between atoms: _51  and  _52
REMARK   24  A    between atoms: _52  and  _53
REMARK   25  A    between atoms: _56  and  _58
REMARK   26  A    between atoms: _58  and  _59
REMARK   27  A    between atoms: _61  and  _63
REMARK   28  A    between atoms: _63  and  _64
REMARK   29  A    between atoms: _63  and  _66
REMARK   30  A    between atoms: _70  and  _71
REMARK   31  A    between atoms: _76  and  _78
REMARK   32  A    between atoms: _78  and  _79
REMARK   33  A    between atoms: _78  and  _81
REMARK   34  A    between atoms: _81  and  _82
REMARK   35  A    between atoms: _82  and  _83
REMARK   36  A    between atoms: _86  and  _88
REMARK   37  A    between atoms: _88  and  _89
REMARK   38  A    between atoms: _88  and  _91
REMARK   39  A    between atoms: _91  and  _92
REMARK   40  A    between atoms: _94  and  _96
REMARK   41  A    between atoms: _96  and  _97
REMARK   42  A    between atoms: _96  and  _99
REMARK   43  A    between atoms: _99  and  _100
REMARK   44  A    between atoms: _105  and  _107
REMARK   45  A    between atoms: _107  and  _108
REMARK   46  A    between atoms: _107  and  _110
REMARK   47  A    between atoms: _110  and  _111
REMARK   48  A    between atoms: _111  and  _112
REMARK   49  A    between atoms: _112  and  _113
REMARK   50  A    between atoms: _123  and  _124
REMARK   51  A    between atoms: _129  and  _131
REMARK   52  A    between atoms: _131  and  _132
REMARK   53  A    between atoms: _131  and  _134
REMARK   54  A    between atoms: _134  and  _135
REMARK   55  A    between atoms: _140  and  _141
REMARK   56  A    between atoms: _143  and  _145
REMARK   57  A    between atoms: _145  and  _146
REMARK   58  A    between atoms: _145  and  _148
REMARK   59  A    between atoms: _148  and  _149
REMARK   60  A    between atoms: _154  and  _155
REMARK   61  A    between atoms: _157  and  _159
REMARK   62  A    between atoms: _159  and  _160
REMARK   63  A    between atoms: _159  and  _162
REMARK   64  A    between atoms: _162  and  _163
REMARK   65  A    between atoms: _168  and  _169
REMARK   66  A    between atoms: _171  and  _173
REMARK   67  A    between atoms: _173  and  _174
REMARK   68  A    between atoms: _173  and  _176
REMARK   69  A    between atoms: _179  and  _181
REMARK   70  A    between atoms: _181  and  _182
REMARK   71  A    between atoms: _181  and  _184
REMARK   72  A    between atoms: _184  and  _185
REMARK   73  A    between atoms: _191  and  _192
REMARK   74  A    between atoms: _197  and  _199
REMARK   75  A    between atoms: _199  and  _200
REMARK   76  A    between atoms: _199  and  _202
REMARK   77  A    between atoms: _202  and  _203
REMARK   78  A    between atoms: _205  and  _207
REMARK   79  A    between atoms: _207  and  _208
REMARK   80  A    between atoms: _207  and  _210
REMARK   81  A    between atoms: _210  and  _211
REMARK   82  A    between atoms: _211  and  _212
REMARK   83  A    between atoms: _215  and  _217
REMARK   84  A    between atoms: _217  and  _218
REMARK   85  A    between atoms: _217  and  _220
REMARK   86  A    between atoms: _220  and  _221
REMARK   87  A    between atoms: _226  and  _227
REMARK   88  A    between atoms: _229  and  _231
REMARK   89  A    between atoms: _231  and  _232
REMARK   90  A    between atoms: _231  and  _234
REMARK   91  A    between atoms: _234  and  _235
REMARK   92  A    between atoms: _240  and  _242
REMARK   93  A    between atoms: _242  and  _243
REMARK   94  A    between atoms: _242  and  _245
REMARK   95  A    between atoms: _245  and  _246
REMARK   96  A    between atoms: _251  and  _253
REMARK   97  A    between atoms: _253  and  _254
REMARK   98  A    between atoms: _253  and  _256
REMARK   99  A    between atoms: _256  and  _257
REMARK  100  A    between atoms: _257  and  _258
REMARK  101  A    between atoms: _260  and  _262
REMARK  102  A    between atoms: _262  and  _263
REMARK  103  A    between atoms: _262  and  _265
REMARK  104  A    between atoms: _265  and  _266
REMARK  105  A    between atoms: _271  and  _272
REMARK  106  A    between atoms: _274  and  _276
REMARK  107  A    between atoms: _276  and  _277
REMARK  108  A    between atoms: _276  and  _279
REMARK  109  A    between atoms: _279  and  _280
REMARK  110  A    between atoms: _283  and  _285
REMARK  111  A    between atoms: _285  and  _286
REMARK  112  A    between atoms: _285  and  _288
REMARK  113  A    between atoms: _288  and  _289
REMARK  114  A    between atoms: _289  and  _497
REMARK  115  A    between atoms: _290  and  _292
REMARK  116  A    between atoms: _292  and  _293
REMARK  117  A    between atoms: _292  and  _295
REMARK  118  A    between atoms: _295  and  _296
REMARK  119  A    between atoms: _299  and  _301
REMARK  120  A    between atoms: _301  and  _302
REMARK  121  A    between atoms: _301  and  _304
REMARK  122  A    between atoms: _304  and  _305
REMARK  123  A    between atoms: _310  and  _311
REMARK  124  A    between atoms: _313  and  _315
REMARK  125  A    between atoms: _315  and  _316
REMARK  126  A    between atoms: _315  and  _318
REMARK  127  A    between atoms: _318  and  _319
REMARK  128  A    between atoms: _324  and  _325
REMARK  129  A    between atoms: _327  and  _329
REMARK  130  A    between atoms: _329  and  _330
REMARK  131  A    between atoms: _329  and  _332
REMARK  132  A    between atoms: _332  and  _333
REMARK  133  A    between atoms: _333  and  _334
REMARK  134  A    between atoms: _337  and  _339
REMARK  135  A    between atoms: _339  and  _340
REMARK  136  A    between atoms: _339  and  _342
REMARK  137  A    between atoms: _342  and  _343
REMARK  138  A    between atoms: _348  and  _349
REMARK  139  A    between atoms: _351  and  _353
REMARK  140  A    between atoms: _353  and  _354
REMARK  141  A    between atoms: _353  and  _356
REMARK  142  A    between atoms: _356  and  _357
REMARK  143  A    between atoms: _362  and  _364
REMARK  144  A    between atoms: _364  and  _365
REMARK  145  A    between atoms: _364  and  _367
REMARK  146  A    between atoms: _367  and  _368
REMARK  147  A    between atoms: _371  and  _373
REMARK  148  A    between atoms: _373  and  _374
REMARK  149  A    between atoms: _373  and  _376
REMARK  150  A    between atoms: _376  and  _377
REMARK  151  A    between atoms: _382  and  _384
REMARK  152  A    between atoms: _384  and  _385
REMARK  153  A    between atoms: _384  and  _387
REMARK  154  A    between atoms: _387  and  _388
REMARK  155  A    between atoms: _398  and  _400
REMARK  156  A    between atoms: _400  and  _401
REMARK  157  A    between atoms: _400  and  _403
REMARK  158  A    between atoms: _403  and  _404
REMARK  159  A    between atoms: _410  and  _412
REMARK  160  A    between atoms: _412  and  _413
REMARK  161  A    between atoms: _412  and  _415
REMARK  162  A    between atoms: _415  and  _416
REMARK  163  A    between atoms: _419  and  _421
REMARK  164  A    between atoms: _421  and  _422
REMARK  165  A    between atoms: _421  and  _424
REMARK  166  A    between atoms: _424  and  _425
REMARK  167  A    between atoms: _425  and  _426
REMARK  168  A    between atoms: _426  and  _427
REMARK  169  A    between atoms: _436  and  _438
REMARK  170  A    between atoms: _438  and  _439
REMARK  171  A    between atoms: _438  and  _441
REMARK  172  A    between atoms: _441  and  _442
REMARK  173  A    between atoms: _447  and  _449
REMARK  174  A    between atoms: _449  and  _450
REMARK  175  A    between atoms: _449  and  _452
REMARK  176  A    between atoms: _452  and  _453
REMARK  177  A    between atoms: _453  and  _454
REMARK  178  A    between atoms: _454  and  _455
REMARK  179  A    between atoms: _464  and  _466
REMARK  180  A    between atoms: _466  and  _467
REMARK  181  A    between atoms: _470  and  _472
REMARK  182  A    between atoms: _472  and  _473
REMARK  183  A    between atoms: _475  and  _477
REMARK  184  A    between atoms: _477  and  _478
REMARK  185  A    between atoms: _477  and  _480
REMARK  186  A    between atoms: _480  and  _481
REMARK  187  A    between atoms: _491  and  _493
REMARK  188  A    between atoms: _493  and  _494
REMARK  189  A    between atoms: _493  and  _496
REMARK  190  A    between atoms: _496  and  _497
REMARK  191  A    between atoms: _498  and  _500
REMARK  192  A    between atoms: _500  and  _501
REMARK  193  A    between atoms: _504  and  _506
REMARK  194  A    between atoms: _506  and  _507
REMARK  195  A    between atoms: _506  and  _509
REMARK  196  A    between atoms: _509  and  _510
REMARK  197  A    between atoms: _513  and  _515
REMARK  198  A    between atoms: _515  and  _516
REMARK  199  A    between atoms: _515  and  _518
REMARK  200  A    between atoms: _518  and  _519
REMARK  201  A    between atoms: _524  and  _525
REMARK  202  A    between atoms: _527  and  _529
REMARK  203  A    between atoms: _529  and  _530
REMARK  204  A    between atoms: _529  and  _532
REMARK  205  A    between atoms: _532  and  _533
REMARK  206  A    between atoms: _535  and  _537
REMARK  207  A    between atoms: _537  and  _538
REMARK  208  A    between atoms: _537  and  _540
REMARK  209  A    between atoms: _540  and  _541
REMARK  210  A    between atoms: _547  and  _549
REMARK  211  A    between atoms: _549  and  _550
REMARK  212  A    between atoms: _549  and  _552
REMARK  213  A    between atoms: _552  and  _553
REMARK  214  A    between atoms: _556  and  _558
REMARK  215  A    between atoms: _558  and  _559
REMARK  216  A    between atoms: _558  and  _561
REMARK  217  A    between atoms: _561  and  _562
REMARK  218  A    between atoms: _562  and  _563
REMARK  219  A    between atoms: _565  and  _567
REMARK  220  A    between atoms: _567  and  _568
REMARK  221  A    between atoms: _567  and  _570
REMARK  222  A    between atoms: _570  and  _571
REMARK  223  A    between atoms: _573  and  _575
REMARK  224  A    between atoms: _575  and  _576
REMARK  225  A    between atoms: _575  and  _578
REMARK  226  A    between atoms: _578  and  _579
REMARK  227  A    between atoms: _581  and  _583
REMARK  228  A    between atoms: _583  and  _584
REMARK  229  A    between atoms: _583  and  _586
REMARK  230  A    between atoms: _586  and  _587
REMARK  231  A    between atoms: _592  and  _594
REMARK  232  A    between atoms: _594  and  _595
REMARK  233  A    between atoms: _594  and  _597
REMARK  234  A    between atoms: _597  and  _598
REMARK  235  A    between atoms: _603  and  _605
REMARK  236  A    between atoms: _605  and  _606
REMARK  237  A    between atoms: _605  and  _608
REMARK  238  A    between atoms: _608  and  _609
REMARK  239  A    between atoms: _612  and  _614
REMARK  240  A    between atoms: _614  and  _615
REMARK  241  A    between atoms: _618  and  _620
REMARK  242  A    between atoms: _620  and  _621
REMARK  243  A    between atoms: _620  and  _623
REMARK  244  A    between atoms: _623  and  _624
REMARK  245  A    between atoms: _629  and  _631
REMARK  246  A    between atoms: _631  and  _632
REMARK  247  A    between atoms: _631  and  _634
REMARK  248  A    between atoms: _634  and  _635
REMARK  249  A    between atoms: _640  and  _641
REMARK  250  A    between atoms: _643  and  _645
REMARK  251  A    between atoms: _645  and  _646
REMARK  252  A    between atoms: _645  and  _648
REMARK  253  A    between atoms: _648  and  _649
REMARK  254  A    between atoms: _654  and  _655
REMARK  255  A    between atoms: _657  and  _659
REMARK  256  A    between atoms: _659  and  _660
REMARK  257  A    between atoms: _659  and  _662
REMARK  258  A    between atoms: _665  and  _667
REMARK  259  A    between atoms: _667  and  _668
REMARK  260  A    between atoms: _667  and  _670
REMARK  261  A    between atoms: _670  and  _671
REMARK  262  A    between atoms: _676  and  _678
REMARK  263  A    between atoms: _678  and  _679
REMARK  264  A    between atoms: _682  and  _684
REMARK  265  A    between atoms: _684  and  _685
REMARK  266  A    between atoms: _684  and  _687
REMARK  267  A    between atoms: _687  and  _688
REMARK  268  A    between atoms: _688  and  _689
REMARK  269  A    between atoms: _689  and  _690
REMARK  270  A    between atoms: _699  and  _701
REMARK  271  A    between atoms: _701  and  _702
REMARK  272  A    between atoms: _701  and  _704
REMARK  273  A    between atoms: _704  and  _705
REMARK  274  A    between atoms: _708  and  _710
REMARK  275  A    between atoms: _710  and  _711
REMARK  276  A    between atoms: _710  and  _713
REMARK  277  A    between atoms: _713  and  _714
REMARK  278  A    between atoms: _717  and  _719
REMARK  279  A    between atoms: _719  and  _720
REMARK  280  A    between atoms: _719  and  _722
REMARK  281  A    between atoms: _722  and  _723
REMARK                            x       y       z     vdW  Elec       q    Type
REMARK                         _______ _______ _______ _____ _____    ______ ____
ROOT
ATOM      1  O   HOH     1      13.125  27.141  22.412  0.00  0.00    +0.000 OA
ENDROOT
TORSDOF 0
REMARK  Name = ../refined-set-2016/1qka/1qka_pocket.pdb
REMARK  281 active torsions:
REMARK  status: ('A' for Active; 'I' for Inactive)
REMARK    1  A    between atoms: _1  and  _3
REMARK    2  A    between atoms: _3  and  _4
REMARK    3  A    between atoms: _3  and  _6
REMARK    4  A    between atoms: _6  and  _7
REMARK    5  A    between atoms: _12  and  _14
REMARK    6  A    between atoms: _14  and  _15
REMARK    7  A    between atoms: _17  and  _19
REMARK    8  A    between atoms: _19  and  _20
REMARK    9  A    between atoms: _19  and  _22
REMARK   10  A    between atoms: _22  and  _23
REMARK   11  A    between atoms: _25  and  _27
REMARK   12  A    between atoms: _27  and  _28
REMARK   13  A    between atoms: _27  and  _30
REMARK   14  A    between atoms: _30  and  _31
REMARK   15  A    between atoms: _31  and  _32
REMARK   16  A    between atoms: _37  and  _39
REMARK   17  A    between atoms: _39  and  _40
REMARK   18  A    between atoms: _39  and  _42
REMARK   19  A    between atoms: _42  and  _43
REMARK   20  A    between atoms: _46  and  _48
REMARK   21  A    between atoms: _48  and  _49
REMARK   22  A    between atoms: _48  and  _51
REMARK   23  A    between atoms: _51  and  _52
REMARK   24  A    between atoms: _52  and  _53
REMARK   25  A    between atoms: _56  and  _58
REMARK   26  A    between atoms: _58  and  _59
REMARK   27  A    between atoms: _61  and  _63
REMARK   28  A    between atoms: _63  and  _64
REMARK   29  A    between atoms: _63  and  _66
REMARK   30  A    between atoms: _70  and  _71
REMARK   31  A    between atoms: _76  and  _78
REMARK   32  A    between atoms: _78  and  _79
REMARK   33  A    between atoms: _78  and  _81
REMARK   34  A    between atoms: _81  and  _82
REMARK   35  A    between atoms: _82  and  _83
REMARK   36  A    between atoms: _86  and  _88
REMARK   37  A    between atoms: _88  and  _89
REMARK   38  A    between atoms: _88  and  _91
REMARK   39  A    between atoms: _91  and  _92
REMARK   40  A    between atoms: _94  and  _96
REMARK   41  A    between atoms: _96  and  _97
REMARK   42  A    between atoms: _96  and  _99
REMARK   43  A    between atoms: _99  and  _100
REMARK   44  A    between atoms: _105  and  _107
REMARK   45  A    between atoms: _107  and  _108
REMARK   46  A    between atoms: _107  and  _110
REMARK   47  A    between atoms: _110  and  _111
REMARK   48  A    between atoms: _111  and  _112
REMARK   49  A    between atoms: _112  and  _113
REMARK   50  A    between atoms: _123  and  _124
REMARK   51  A    between atoms: _129  and  _131
REMARK   52  A    between atoms: _131  and  _132
REMARK   53  A    between atoms: _131  and  _134
REMARK   54  A    between atoms: _134  and  _135
REMARK   55  A    between atoms: _140  and  _141
REMARK   56  A    between atoms: _143  and  _145
REMARK   57  A    between atoms: _145  and  _146
REMARK   58  A    between atoms: _145  and  _148
REMARK   59  A    between atoms: _148  and  _149
REMARK   60  A    between atoms: _154  and  _155
REMARK   61  A    between atoms: _157  and  _159
REMARK   62  A    between atoms: _159  and  _160
REMARK   63  A    between atoms: _159  and  _162
REMARK   64  A    between atoms: _162  and  _163
REMARK   65  A    between atoms: _168  and  _169
REMARK   66  A    between atoms: _171  and  _173
REMARK   67  A    between atoms: _173  and  _174
REMARK   68  A    between atoms: _173  and  _176
REMARK   69  A    between atoms: _179  and  _181
REMARK   70  A    between atoms: _181  and  _182
REMARK   71  A    between atoms: _181  and  _184
REMARK   72  A    between atoms: _184  and  _185
REMARK   73  A    between atoms: _191  and  _192
REMARK   74  A    between atoms: _197  and  _199
REMARK   75  A    between atoms: _199  and  _200
REMARK   76  A    between atoms: _199  and  _202
REMARK   77  A    between atoms: _202  and  _203
REMARK   78  A    between atoms: _205  and  _207
REMARK   79  A    between atoms: _207  and  _208
REMARK   80  A    between atoms: _207  and  _210
REMARK   81  A    between atoms: _210  and  _211
REMARK   82  A    between atoms: _211  and  _212
REMARK   83  A    between atoms: _215  and  _217
REMARK   84  A    between atoms: _217  and  _218
REMARK   85  A    between atoms: _217  and  _220
REMARK   86  A    between atoms: _220  and  _221
REMARK   87  A    between atoms: _226  and  _227
REMARK   88  A    between atoms: _229  and  _231
REMARK   89  A    between atoms: _231  and  _232
REMARK   90  A    between atoms: _231  and  _234
REMARK   91  A    between atoms: _234  and  _235
REMARK   92  A    between atoms: _240  and  _242
REMARK   93  A    between atoms: _242  and  _243
REMARK   94  A    between atoms: _242  and  _245
REMARK   95  A    between atoms: _245  and  _246
REMARK   96  A    between atoms: _251  and  _253
REMARK   97  A    between atoms: _253  and  _254
REMARK   98  A    between atoms: _253  and  _256
REMARK   99  A    between atoms: _256  and  _257
REMARK  100  A    between atoms: _257  and  _258
REMARK  101  A    between atoms: _260  and  _262
REMARK  102  A    between atoms: _262  and  _263
REMARK  103  A    between atoms: _262  and  _265
REMARK  104  A    between atoms: _265  and  _266
REMARK  105  A    between atoms: _271  and  _272
REMARK  106  A    between atoms: _274  and  _276
REMARK  107  A    between atoms: _276  and  _277
REMARK  108  A    between atoms: _276  and  _279
REMARK  109  A    between atoms: _279  and  _280
REMARK  110  A    between atoms: _283  and  _285
REMARK  111  A    between atoms: _285  and  _286
REMARK  112  A    between atoms: _285  and  _288
REMARK  113  A    between atoms: _288  and  _289
REMARK  114  A    between atoms: _289  and  _497
REMARK  115  A    between atoms: _290  and  _292
REMARK  116  A    between atoms: _292  and  _293
REMARK  117  A    between atoms: _292  and  _295
REMARK  118  A    between atoms: _295  and  _296
REMARK  119  A    between atoms: _299  and  _301
REMARK  120  A    between atoms: _301  and  _302
REMARK  121  A    between atoms: _301  and  _304
REMARK  122  A    between atoms: _304  and  _305
REMARK  123  A    between atoms: _310  and  _311
REMARK  124  A    between atoms: _313  and  _315
REMARK  125  A    between atoms: _315  and  _316
REMARK  126  A    between atoms: _315  and  _318
REMARK  127  A    between atoms: _318  and  _319
REMARK  128  A    between atoms: _324  and  _325
REMARK  129  A    between atoms: _327  and  _329
REMARK  130  A    between atoms: _329  and  _330
REMARK  131  A    between atoms: _329  and  _332
REMARK  132  A    between atoms: _332  and  _333
REMARK  133  A    between atoms: _333  and  _334
REMARK  134  A    between atoms: _337  and  _339
REMARK  135  A    between atoms: _339  and  _340
REMARK  136  A    between atoms: _339  and  _342
REMARK  137  A    between atoms: _342  and  _343
REMARK  138  A    between atoms: _348  and  _349
REMARK  139  A    between atoms: _351  and  _353
REMARK  140  A    between atoms: _353  and  _354
REMARK  141  A    between atoms: _353  and  _356
REMARK  142  A    between atoms: _356  and  _357
REMARK  143  A    between atoms: _362  and  _364
REMARK  144  A    between atoms: _364  and  _365
REMARK  145  A    between atoms: _364  and  _367
REMARK  146  A    between atoms: _367  and  _368
REMARK  147  A    between atoms: _371  and  _373
REMARK  148  A    between atoms: _373  and  _374
REMARK  149  A    between atoms: _373  and  _376
REMARK  150  A    between atoms: _376  and  _377
REMARK  151  A    between atoms: _382  and  _384
REMARK  152  A    between atoms: _384  and  _385
REMARK  153  A    between atoms: _384  and  _387
REMARK  154  A    between atoms: _387  and  _388
REMARK  155  A    between atoms: _398  and  _400
REMARK  156  A    between atoms: _400  and  _401
REMARK  157  A    between atoms: _400  and  _403
REMARK  158  A    between atoms: _403  and  _404
REMARK  159  A    between atoms: _410  and  _412
REMARK  160  A    between atoms: _412  and  _413
REMARK  161  A    between atoms: _412  and  _415
REMARK  162  A    between atoms: _415  and  _416
REMARK  163  A    between atoms: _419  and  _421
REMARK  164  A    between atoms: _421  and  _422
REMARK  165  A    between atoms: _421  and  _424
REMARK  166  A    between atoms: _424  and  _425
REMARK  167  A    between atoms: _425  and  _426
REMARK  168  A    between atoms: _426  and  _427
REMARK  169  A    between atoms: _436  and  _438
REMARK  170  A    between atoms: _438  and  _439
REMARK  171  A    between atoms: _438  and  _441
REMARK  172  A    between atoms: _441  and  _442
REMARK  173  A    between atoms: _447  and  _449
REMARK  174  A    between atoms: _449  and  _450
REMARK  175  A    between atoms: _449  and  _452
REMARK  176  A    between atoms: _452  and  _453
REMARK  177  A    between atoms: _453  and  _454
REMARK  178  A    between atoms: _454  and  _455
REMARK  179  A    between atoms: _464  and  _466
REMARK  180  A    between atoms: _466  and  _467
REMARK  181  A    between atoms: _470  and  _472
REMARK  182  A    between atoms: _472  and  _473
REMARK  183  A    between atoms: _475  and  _477
REMARK  184  A    between atoms: _477  and  _478
REMARK  185  A    between atoms: _477  and  _480
REMARK  186  A    between atoms: _480  and  _481
REMARK  187  A    between atoms: _491  and  _493
REMARK  188  A    between atoms: _493  and  _494
REMARK  189  A    between atoms: _493  and  _496
REMARK  190  A    between atoms: _496  and  _497
REMARK  191  A    between atoms: _498  and  _500
REMARK  192  A    between atoms: _500  and  _501
REMARK  193  A    between atoms: _504  and  _506
REMARK  194  A    between atoms: _506  and  _507
REMARK  195  A    between atoms: _506  and  _509
REMARK  196  A    between atoms: _509  and  _510
REMARK  197  A    between atoms: _513  and  _515
REMARK  198  A    between atoms: _515  and  _516
REMARK  199  A    between atoms: _515  and  _518
REMARK  200  A    between atoms: _518  and  _519
REMARK  201  A    between atoms: _524  and  _525
REMARK  202  A    between atoms: _527  and  _529
REMARK  203  A    between atoms: _529  and  _530
REMARK  204  A    between atoms: _529  and  _532
REMARK  205  A    between atoms: _532  and  _533
REMARK  206  A    between atoms: _535  and  _537
REMARK  207  A    between atoms: _537  and  _538
REMARK  208  A    between atoms: _537  and  _540
REMARK  209  A    between atoms: _540  and  _541
REMARK  210  A    between atoms: _547  and  _549
REMARK  211  A    between atoms: _549  and  _550
REMARK  212  A    between atoms: _549  and  _552
REMARK  213  A    between atoms: _552  and  _553
REMARK  214  A    between atoms: _556  and  _558
REMARK  215  A    between atoms: _558  and  _559
REMARK  216  A    between atoms: _558  and  _561
REMARK  217  A    between atoms: _561  and  _562
REMARK  218  A    between atoms: _562  and  _563
REMARK  219  A    between atoms: _565  and  _567
REMARK  220  A    between atoms: _567  and  _568
REMARK  221  A    between atoms: _567  and  _570
REMARK  222  A    between atoms: _570  and  _571
REMARK  223  A    between atoms: _573  and  _575
REMARK  224  A    between atoms: _575  and  _576
REMARK  225  A    between atoms: _575  and  _578
REMARK  226  A    between atoms: _578  and  _579
REMARK  227  A    between atoms: _581  and  _583
REMARK  228  A    between atoms: _583  and  _584
REMARK  229  A    between atoms: _583  and  _586
REMARK  230  A    between atoms: _586  and  _587
REMARK  231  A    between atoms: _592  and  _594
REMARK  232  A    between atoms: _594  and  _595
REMARK  233  A    between atoms: _594  and  _597
REMARK  234  A    between atoms: _597  and  _598
REMARK  235  A    between atoms: _603  and  _605
REMARK  236  A    between atoms: _605  and  _606
REMARK  237  A    between atoms: _605  and  _608
REMARK  238  A    between atoms: _608  and  _609
REMARK  239  A    between atoms: _612  and  _614
REMARK  240  A    between atoms: _614  and  _615
REMARK  241  A    between atoms: _618  and  _620
REMARK  242  A    between atoms: _620  and  _621
REMARK  243  A    between atoms: _620  and  _623
REMARK  244  A    between atoms: _623  and  _624
REMARK  245  A    between atoms: _629  and  _631
REMARK  246  A    between atoms: _631  and  _632
REMARK  247  A    between atoms: _631  and  _634
REMARK  248  A    between atoms: _634  and  _635
REMARK  249  A    between atoms: _640  and  _641
REMARK  250  A    between atoms: _643  and  _645
REMARK  251  A    between atoms: _645  and  _646
REMARK  252  A    between atoms: _645  and  _648
REMARK  253  A    between atoms: _648  and  _649
REMARK  254  A    between atoms: _654  and  _655
REMARK  255  A    between atoms: _657  and  _659
REMARK  256  A    between atoms: _659  and  _660
REMARK  257  A    between atoms: _659  and  _662
REMARK  258  A    between atoms: _665  and  _667
REMARK  259  A    between atoms: _667  and  _668
REMARK  260  A    between atoms: _667  and  _670
REMARK  261  A    between atoms: _670  and  _671
REMARK  262  A    between atoms: _676  and  _678
REMARK  263  A    between atoms: _678  and  _679
REMARK  264  A    between atoms: _682  and  _684
REMARK  265  A    between atoms: _684  and  _685
REMARK  266  A    between atoms: _684  and  _687
REMARK  267  A    between atoms: _687  and  _688
REMARK  268  A    between atoms: _688  and  _689
REMARK  269  A    between atoms: _689  and  _690
REMARK  270  A    between atoms: _699  and  _701
REMARK  271  A    between atoms: _701  and  _702
REMARK  272  A    between atoms: _701  and  _704
REMARK  273  A    between atoms: _704  and  _705
REMARK  274  A    between atoms: _708  and  _710
REMARK  275  A    between atoms: _710  and  _711
REMARK  276  A    between atoms: _710  and  _713
REMARK  277  A    between atoms: _713  and  _714
REMARK  278  A    between atoms: _717  and  _719
REMARK  279  A    between atoms: _719  and  _720
REMARK  280  A    between atoms: _719  and  _722
REMARK  281  A    between atoms: _722  and  _723
REMARK                            x       y       z     vdW  Elec       q    Type
REMARK                         _______ _______ _______ _____ _____    ______ ____
ROOT
ATOM      1  O   HOH     1       8.633  13.047   9.881  0.00  0.00    +0.000 OA
ENDROOT
TORSDOF 0
REMARK  Name = ../refined-set-2016/1qka/1qka_pocket.pdb
REMARK  281 active torsions:
REMARK  status: ('A' for Active; 'I' for Inactive)
REMARK    1  A    between atoms: _1  and  _3
REMARK    2  A    between atoms: _3  and  _4
REMARK    3  A    between atoms: _3  and  _6
REMARK    4  A    between atoms: _6  and  _7
REMARK    5  A    between atoms: _12  and  _14
REMARK    6  A    between atoms: _14  and  _15
REMARK    7  A    between atoms: _17  and  _19
REMARK    8  A    between atoms: _19  and  _20
REMARK    9  A    between atoms: _19  and  _22
REMARK   10  A    between atoms: _22  and  _23
REMARK   11  A    between atoms: _25  and  _27
REMARK   12  A    between atoms: _27  and  _28
REMARK   13  A    between atoms: _27  and  _30
REMARK   14  A    between atoms: _30  and  _31
REMARK   15  A    between atoms: _31  and  _32
REMARK   16  A    between atoms: _37  and  _39
REMARK   17  A    between atoms: _39  and  _40
REMARK   18  A    between atoms: _39  and  _42
REMARK   19  A    between atoms: _42  and  _43
REMARK   20  A    between atoms: _46  and  _48
REMARK   21  A    between atoms: _48  and  _49
REMARK   22  A    between atoms: _48  and  _51
REMARK   23  A    between atoms: _51  and  _52
REMARK   24  A    between atoms: _52  and  _53
REMARK   25  A    between atoms: _56  and  _58
REMARK   26  A    between atoms: _58  and  _59
REMARK   27  A    between atoms: _61  and  _63
REMARK   28  A    between atoms: _63  and  _64
REMARK   29  A    between atoms: _63  and  _66
REMARK   30  A    between atoms: _70  and  _71
REMARK   31  A    between atoms: _76  and  _78
REMARK   32  A    between atoms: _78  and  _79
REMARK   33  A    between atoms: _78  and  _81
REMARK   34  A    between atoms: _81  and  _82
REMARK   35  A    between atoms: _82  and  _83
REMARK   36  A    between atoms: _86  and  _88
REMARK   37  A    between atoms: _88  and  _89
REMARK   38  A    between atoms: _88  and  _91
REMARK   39  A    between atoms: _91  and  _92
REMARK   40  A    between atoms: _94  and  _96
REMARK   41  A    between atoms: _96  and  _97
REMARK   42  A    between atoms: _96  and  _99
REMARK   43  A    between atoms: _99  and  _100
REMARK   44  A    between atoms: _105  and  _107
REMARK   45  A    between atoms: _107  and  _108
REMARK   46  A    between atoms: _107  and  _110
REMARK   47  A    between atoms: _110  and  _111
REMARK   48  A    between atoms: _111  and  _112
REMARK   49  A    between atoms: _112  and  _113
REMARK   50  A    between atoms: _123  and  _124
REMARK   51  A    between atoms: _129  and  _131
REMARK   52  A    between atoms: _131  and  _132
REMARK   53  A    between atoms: _131  and  _134
REMARK   54  A    between atoms: _134  and  _135
REMARK   55  A    between atoms: _140  and  _141
REMARK   56  A    between atoms: _143  and  _145
REMARK   57  A    between atoms: _145  and  _146
REMARK   58  A    between atoms: _145  and  _148
REMARK   59  A    between atoms: _148  and  _149
REMARK   60  A    between atoms: _154  and  _155
REMARK   61  A    between atoms: _157  and  _159
REMARK   62  A    between atoms: _159  and  _160
REMARK   63  A    between atoms: _159  and  _162
REMARK   64  A    between atoms: _162  and  _163
REMARK   65  A    between atoms: _168  and  _169
REMARK   66  A    between atoms: _171  and  _173
REMARK   67  A    between atoms: _173  and  _174
REMARK   68  A    between atoms: _173  and  _176
REMARK   69  A    between atoms: _179  and  _181
REMARK   70  A    between atoms: _181  and  _182
REMARK   71  A    between atoms: _181  and  _184
REMARK   72  A    between atoms: _184  and  _185
REMARK   73  A    between atoms: _191  and  _192
REMARK   74  A    between atoms: _197  and  _199
REMARK   75  A    between atoms: _199  and  _200
REMARK   76  A    between atoms: _199  and  _202
REMARK   77  A    between atoms: _202  and  _203
REMARK   78  A    between atoms: _205  and  _207
REMARK   79  A    between atoms: _207  and  _208
REMARK   80  A    between atoms: _207  and  _210
REMARK   81  A    between atoms: _210  and  _211
REMARK   82  A    between atoms: _211  and  _212
REMARK   83  A    between atoms: _215  and  _217
REMARK   84  A    between atoms: _217  and  _218
REMARK   85  A    between atoms: _217  and  _220
REMARK   86  A    between atoms: _220  and  _221
REMARK   87  A    between atoms: _226  and  _227
REMARK   88  A    between atoms: _229  and  _231
REMARK   89  A    between atoms: _231  and  _232
REMARK   90  A    between atoms: _231  and  _234
REMARK   91  A    between atoms: _234  and  _235
REMARK   92  A    between atoms: _240  and  _242
REMARK   93  A    between atoms: _242  and  _243
REMARK   94  A    between atoms: _242  and  _245
REMARK   95  A    between atoms: _245  and  _246
REMARK   96  A    between atoms: _251  and  _253
REMARK   97  A    between atoms: _253  and  _254
REMARK   98  A    between atoms: _253  and  _256
REMARK   99  A    between atoms: _256  and  _257
REMARK  100  A    between atoms: _257  and  _258
REMARK  101  A    between atoms: _260  and  _262
REMARK  102  A    between atoms: _262  and  _263
REMARK  103  A    between atoms: _262  and  _265
REMARK  104  A    between atoms: _265  and  _266
REMARK  105  A    between atoms: _271  and  _272
REMARK  106  A    between atoms: _274  and  _276
REMARK  107  A    between atoms: _276  and  _277
REMARK  108  A    between atoms: _276  and  _279
REMARK  109  A    between atoms: _279  and  _280
REMARK  110  A    between atoms: _283  and  _285
REMARK  111  A    between atoms: _285  and  _286
REMARK  112  A    between atoms: _285  and  _288
REMARK  113  A    between atoms: _288  and  _289
REMARK  114  A    between atoms: _289  and  _497
REMARK  115  A    between atoms: _290  and  _292
REMARK  116  A    between atoms: _292  and  _293
REMARK  117  A    between atoms: _292  and  _295
REMARK  118  A    between atoms: _295  and  _296
REMARK  119  A    between atoms: _299  and  _301
REMARK  120  A    between atoms: _301  and  _302
REMARK  121  A    between atoms: _301  and  _304
REMARK  122  A    between atoms: _304  and  _305
REMARK  123  A    between atoms: _310  and  _311
REMARK  124  A    between atoms: _313  and  _315
REMARK  125  A    between atoms: _315  and  _316
REMARK  126  A    between atoms: _315  and  _318
REMARK  127  A    between atoms: _318  and  _319
REMARK  128  A    between atoms: _324  and  _325
REMARK  129  A    between atoms: _327  and  _329
REMARK  130  A    between atoms: _329  and  _330
REMARK  131  A    between atoms: _329  and  _332
REMARK  132  A    between atoms: _332  and  _333
REMARK  133  A    between atoms: _333  and  _334
REMARK  134  A    between atoms: _337  and  _339
REMARK  135  A    between atoms: _339  and  _340
REMARK  136  A    between atoms: _339  and  _342
REMARK  137  A    between atoms: _342  and  _343
REMARK  138  A    between atoms: _348  and  _349
REMARK  139  A    between atoms: _351  and  _353
REMARK  140  A    between atoms: _353  and  _354
REMARK  141  A    between atoms: _353  and  _356
REMARK  142  A    between atoms: _356  and  _357
REMARK  143  A    between atoms: _362  and  _364
REMARK  144  A    between atoms: _364  and  _365
REMARK  145  A    between atoms: _364  and  _367
REMARK  146  A    between atoms: _367  and  _368
REMARK  147  A    between atoms: _371  and  _373
REMARK  148  A    between atoms: _373  and  _374
REMARK  149  A    between atoms: _373  and  _376
REMARK  150  A    between atoms: _376  and  _377
REMARK  151  A    between atoms: _382  and  _384
REMARK  152  A    between atoms: _384  and  _385
REMARK  153  A    between atoms: _384  and  _387
REMARK  154  A    between atoms: _387  and  _388
REMARK  155  A    between atoms: _398  and  _400
REMARK  156  A    between atoms: _400  and  _401
REMARK  157  A    between atoms: _400  and  _403
REMARK  158  A    between atoms: _403  and  _404
REMARK  159  A    between atoms: _410  and  _412
REMARK  160  A    between atoms: _412  and  _413
REMARK  161  A    between atoms: _412  and  _415
REMARK  162  A    between atoms: _415  and  _416
REMARK  163  A    between atoms: _419  and  _421
REMARK  164  A    between atoms: _421  and  _422
REMARK  165  A    between atoms: _421  and  _424
REMARK  166  A    between atoms: _424  and  _425
REMARK  167  A    between atoms: _425  and  _426
REMARK  168  A    between atoms: _426  and  _427
REMARK  169  A    between atoms: _436  and  _438
REMARK  170  A    between atoms: _438  and  _439
REMARK  171  A    between atoms: _438  and  _441
REMARK  172  A    between atoms: _441  and  _442
REMARK  173  A    between atoms: _447  and  _449
REMARK  174  A    between atoms: _449  and  _450
REMARK  175  A    between atoms: _449  and  _452
REMARK  176  A    between atoms: _452  and  _453
REMARK  177  A    between atoms: _453  and  _454
REMARK  178  A    between atoms: _454  and  _455
REMARK  179  A    between atoms: _464  and  _466
REMARK  180  A    between atoms: _466  and  _467
REMARK  181  A    between atoms: _470  and  _472
REMARK  182  A    between atoms: _472  and  _473
REMARK  183  A    between atoms: _475  and  _477
REMARK  184  A    between atoms: _477  and  _478
REMARK  185  A    between atoms: _477  and  _480
REMARK  186  A    between atoms: _480  and  _481
REMARK  187  A    between atoms: _491  and  _493
REMARK  188  A    between atoms: _493  and  _494
REMARK  189  A    between atoms: _493  and  _496
REMARK  190  A    between atoms: _496  and  _497
REMARK  191  A    between atoms: _498  and  _500
REMARK  192  A    between atoms: _500  and  _501
REMARK  193  A    between atoms: _504  and  _506
REMARK  194  A    between atoms: _506  and  _507
REMARK  195  A    between atoms: _506  and  _509
REMARK  196  A    between atoms: _509  and  _510
REMARK  197  A    between atoms: _513  and  _515
REMARK  198  A    between atoms: _515  and  _516
REMARK  199  A    between atoms: _515  and  _518
REMARK  200  A    between atoms: _518  and  _519
REMARK  201  A    between atoms: _524  and  _525
REMARK  202  A    between atoms: _527  and  _529
REMARK  203  A    between atoms: _529  and  _530
REMARK  204  A    between atoms: _529  and  _532
REMARK  205  A    between atoms: _532  and  _533
REMARK  206  A    between atoms: _535  and  _537
REMARK  207  A    between atoms: _537  and  _538
REMARK  208  A    between atoms: _537  and  _540
REMARK  209  A    between atoms: _540  and  _541
REMARK  210  A    between atoms: _547  and  _549
REMARK  211  A    between atoms: _549  and  _550
REMARK  212  A    between atoms: _549  and  _552
REMARK  213  A    between atoms: _552  and  _553
REMARK  214  A    between atoms: _556  and  _558
REMARK  215  A    between atoms: _558  and  _559
REMARK  216  A    between atoms: _558  and  _561
REMARK  217  A    between atoms: _561  and  _562
REMARK  218  A    between atoms: _562  and  _563
REMARK  219  A    between atoms: _565  and  _567
REMARK  220  A    between atoms: _567  and  _568
REMARK  221  A    between atoms: _567  and  _570
REMARK  222  A    between atoms: _570  and  _571
REMARK  223  A    between atoms: _573  and  _575
REMARK  224  A    between atoms: _575  and  _576
REMARK  225  A    between atoms: _575  and  _578
REMARK  226  A    between atoms: _578  and  _579
REMARK  227  A    between atoms: _581  and  _583
REMARK  228  A    between atoms: _583  and  _584
REMARK  229  A    between atoms: _583  and  _586
REMARK  230  A    between atoms: _586  and  _587
REMARK  231  A    between atoms: _592  and  _594
REMARK  232  A    between atoms: _594  and  _595
REMARK  233  A    between atoms: _594  and  _597
REMARK  234  A    between atoms: _597  and  _598
REMARK  235  A    between atoms: _603  and  _605
REMARK  236  A    between atoms: _605  and  _606
REMARK  237  A    between atoms: _605  and  _608
REMARK  238  A    between atoms: _608  and  _609
REMARK  239  A    between atoms: _612  and  _614
REMARK  240  A    between atoms: _614  and  _615
REMARK  241  A    between atoms: _618  and  _620
REMARK  242  A    between atoms: _620  and  _621
REMARK  243  A    between atoms: _620  and  _623
REMARK  244  A    between atoms: _623  and  _624
REMARK  245  A    between atoms: _629  and  _631
REMARK  246  A    between atoms: _631  and  _632
REMARK  247  A    between atoms: _631  and  _634
REMARK  248  A    between atoms: _634  and  _635
REMARK  249  A    between atoms: _640  and  _641
REMARK  250  A    between atoms: _643  and  _645
REMARK  251  A    between atoms: _645  and  _646
REMARK  252  A    between atoms: _645  and  _648
REMARK  253  A    between atoms: _648  and  _649
REMARK  254  A    between atoms: _654  and  _655
REMARK  255  A    between atoms: _657  and  _659
REMARK  256  A    between atoms: _659  and  _660
REMARK  257  A    between atoms: _659  and  _662
REMARK  258  A    between atoms: _665  and  _667
REMARK  259  A    between atoms: _667  and  _668
REMARK  260  A    between atoms: _667  and  _670
REMARK  261  A    between atoms: _670  and  _671
REMARK  262  A    between atoms: _676  and  _678
REMARK  263  A    between atoms: _678  and  _679
REMARK  264  A    between atoms: _682  and  _684
REMARK  265  A    between atoms: _684  and  _685
REMARK  266  A    between atoms: _684  and  _687
REMARK  267  A    between atoms: _687  and  _688
REMARK  268  A    between atoms: _688  and  _689
REMARK  269  A    between atoms: _689  and  _690
REMARK  270  A    between atoms: _699  and  _701
REMARK  271  A    between atoms: _701  and  _702
REMARK  272  A    between atoms: _701  and  _704
REMARK  273  A    between atoms: _704  and  _705
REMARK  274  A    between atoms: _708  and  _710
REMARK  275  A    between atoms: _710  and  _711
REMARK  276  A    between atoms: _710  and  _713
REMARK  277  A    between atoms: _713  and  _714
REMARK  278  A    between atoms: _717  and  _719
REMARK  279  A    between atoms: _719  and  _720
REMARK  280  A    between atoms: _719  and  _722
REMARK  281  A    between atoms: _722  and  _723
REMARK                            x       y       z     vdW  Elec       q    Type
REMARK                         _______ _______ _______ _____ _____    ______ ____
ROOT
ATOM      1  O   HOH     1      11.250  13.732  16.798  0.00  0.00    +0.000 OA
ENDROOT
TORSDOF 0
REMARK  Name = ../refined-set-2016/1qka/1qka_pocket.pdb
REMARK  281 active torsions:
REMARK  status: ('A' for Active; 'I' for Inactive)
REMARK    1  A    between atoms: _1  and  _3
REMARK    2  A    between atoms: _3  and  _4
REMARK    3  A    between atoms: _3  and  _6
REMARK    4  A    between atoms: _6  and  _7
REMARK    5  A    between atoms: _12  and  _14
REMARK    6  A    between atoms: _14  and  _15
REMARK    7  A    between atoms: _17  and  _19
REMARK    8  A    between atoms: _19  and  _20
REMARK    9  A    between atoms: _19  and  _22
REMARK   10  A    between atoms: _22  and  _23
REMARK   11  A    between atoms: _25  and  _27
REMARK   12  A    between atoms: _27  and  _28
REMARK   13  A    between atoms: _27  and  _30
REMARK   14  A    between atoms: _30  and  _31
REMARK   15  A    between atoms: _31  and  _32
REMARK   16  A    between atoms: _37  and  _39
REMARK   17  A    between atoms: _39  and  _40
REMARK   18  A    between atoms: _39  and  _42
REMARK   19  A    between atoms: _42  and  _43
REMARK   20  A    between atoms: _46  and  _48
REMARK   21  A    between atoms: _48  and  _49
REMARK   22  A    between atoms: _48  and  _51
REMARK   23  A    between atoms: _51  and  _52
REMARK   24  A    between atoms: _52  and  _53
REMARK   25  A    between atoms: _56  and  _58
REMARK   26  A    between atoms: _58  and  _59
REMARK   27  A    between atoms: _61  and  _63
REMARK   28  A    between atoms: _63  and  _64
REMARK   29  A    between atoms: _63  and  _66
REMARK   30  A    between atoms: _70  and  _71
REMARK   31  A    between atoms: _76  and  _78
REMARK   32  A    between atoms: _78  and  _79
REMARK   33  A    between atoms: _78  and  _81
REMARK   34  A    between atoms: _81  and  _82
REMARK   35  A    between atoms: _82  and  _83
REMARK   36  A    between atoms: _86  and  _88
REMARK   37  A    between atoms: _88  and  _89
REMARK   38  A    between atoms: _88  and  _91
REMARK   39  A    between atoms: _91  and  _92
REMARK   40  A    between atoms: _94  and  _96
REMARK   41  A    between atoms: _96  and  _97
REMARK   42  A    between atoms: _96  and  _99
REMARK   43  A    between atoms: _99  and  _100
REMARK   44  A    between atoms: _105  and  _107
REMARK   45  A    between atoms: _107  and  _108
REMARK   46  A    between atoms: _107  and  _110
REMARK   47  A    between atoms: _110  and  _111
REMARK   48  A    between atoms: _111  and  _112
REMARK   49  A    between atoms: _112  and  _113
REMARK   50  A    between atoms: _123  and  _124
REMARK   51  A    between atoms: _129  and  _131
REMARK   52  A    between atoms: _131  and  _132
REMARK   53  A    between atoms: _131  and  _134
REMARK   54  A    between atoms: _134  and  _135
REMARK   55  A    between atoms: _140  and  _141
REMARK   56  A    between atoms: _143  and  _145
REMARK   57  A    between atoms: _145  and  _146
REMARK   58  A    between atoms: _145  and  _148
REMARK   59  A    between atoms: _148  and  _149
REMARK   60  A    between atoms: _154  and  _155
REMARK   61  A    between atoms: _157  and  _159
REMARK   62  A    between atoms: _159  and  _160
REMARK   63  A    between atoms: _159  and  _162
REMARK   64  A    between atoms: _162  and  _163
REMARK   65  A    between atoms: _168  and  _169
REMARK   66  A    between atoms: _171  and  _173
REMARK   67  A    between atoms: _173  and  _174
REMARK   68  A    between atoms: _173  and  _176
REMARK   69  A    between atoms: _179  and  _181
REMARK   70  A    between atoms: _181  and  _182
REMARK   71  A    between atoms: _181  and  _184
REMARK   72  A    between atoms: _184  and  _185
REMARK   73  A    between atoms: _191  and  _192
REMARK   74  A    between atoms: _197  and  _199
REMARK   75  A    between atoms: _199  and  _200
REMARK   76  A    between atoms: _199  and  _202
REMARK   77  A    between atoms: _202  and  _203
REMARK   78  A    between atoms: _205  and  _207
REMARK   79  A    between atoms: _207  and  _208
REMARK   80  A    between atoms: _207  and  _210
REMARK   81  A    between atoms: _210  and  _211
REMARK   82  A    between atoms: _211  and  _212
REMARK   83  A    between atoms: _215  and  _217
REMARK   84  A    between atoms: _217  and  _218
REMARK   85  A    between atoms: _217  and  _220
REMARK   86  A    between atoms: _220  and  _221
REMARK   87  A    between atoms: _226  and  _227
REMARK   88  A    between atoms: _229  and  _231
REMARK   89  A    between atoms: _231  and  _232
REMARK   90  A    between atoms: _231  and  _234
REMARK   91  A    between atoms: _234  and  _235
REMARK   92  A    between atoms: _240  and  _242
REMARK   93  A    between atoms: _242  and  _243
REMARK   94  A    between atoms: _242  and  _245
REMARK   95  A    between atoms: _245  and  _246
REMARK   96  A    between atoms: _251  and  _253
REMARK   97  A    between atoms: _253  and  _254
REMARK   98  A    between atoms: _253  and  _256
REMARK   99  A    between atoms: _256  and  _257
REMARK  100  A    between atoms: _257  and  _258
REMARK  101  A    between atoms: _260  and  _262
REMARK  102  A    between atoms: _262  and  _263
REMARK  103  A    between atoms: _262  and  _265
REMARK  104  A    between atoms: _265  and  _266
REMARK  105  A    between atoms: _271  and  _272
REMARK  106  A    between atoms: _274  and  _276
REMARK  107  A    between atoms: _276  and  _277
REMARK  108  A    between atoms: _276  and  _279
REMARK  109  A    between atoms: _279  and  _280
REMARK  110  A    between atoms: _283  and  _285
REMARK  111  A    between atoms: _285  and  _286
REMARK  112  A    between atoms: _285  and  _288
REMARK  113  A    between atoms: _288  and  _289
REMARK  114  A    between atoms: _289  and  _497
REMARK  115  A    between atoms: _290  and  _292
REMARK  116  A    between atoms: _292  and  _293
REMARK  117  A    between atoms: _292  and  _295
REMARK  118  A    between atoms: _295  and  _296
REMARK  119  A    between atoms: _299  and  _301
REMARK  120  A    between atoms: _301  and  _302
REMARK  121  A    between atoms: _301  and  _304
REMARK  122  A    between atoms: _304  and  _305
REMARK  123  A    between atoms: _310  and  _311
REMARK  124  A    between atoms: _313  and  _315
REMARK  125  A    between atoms: _315  and  _316
REMARK  126  A    between atoms: _315  and  _318
REMARK  127  A    between atoms: _318  and  _319
REMARK  128  A    between atoms: _324  and  _325
REMARK  129  A    between atoms: _327  and  _329
REMARK  130  A    between atoms: _329  and  _330
REMARK  131  A    between atoms: _329  and  _332
REMARK  132  A    between atoms: _332  and  _333
REMARK  133  A    between atoms: _333  and  _334
REMARK  134  A    between atoms: _337  and  _339
REMARK  135  A    between atoms: _339  and  _340
REMARK  136  A    between atoms: _339  and  _342
REMARK  137  A    between atoms: _342  and  _343
REMARK  138  A    between atoms: _348  and  _349
REMARK  139  A    between atoms: _351  and  _353
REMARK  140  A    between atoms: _353  and  _354
REMARK  141  A    between atoms: _353  and  _356
REMARK  142  A    between atoms: _356  and  _357
REMARK  143  A    between atoms: _362  and  _364
REMARK  144  A    between atoms: _364  and  _365
REMARK  145  A    between atoms: _364  and  _367
REMARK  146  A    between atoms: _367  and  _368
REMARK  147  A    between atoms: _371  and  _373
REMARK  148  A    between atoms: _373  and  _374
REMARK  149  A    between atoms: _373  and  _376
REMARK  150  A    between atoms: _376  and  _377
REMARK  151  A    between atoms: _382  and  _384
REMARK  152  A    between atoms: _384  and  _385
REMARK  153  A    between atoms: _384  and  _387
REMARK  154  A    between atoms: _387  and  _388
REMARK  155  A    between atoms: _398  and  _400
REMARK  156  A    between atoms: _400  and  _401
REMARK  157  A    between atoms: _400  and  _403
REMARK  158  A    between atoms: _403  and  _404
REMARK  159  A    between atoms: _410  and  _412
REMARK  160  A    between atoms: _412  and  _413
REMARK  161  A    between atoms: _412  and  _415
REMARK  162  A    between atoms: _415  and  _416
REMARK  163  A    between atoms: _419  and  _421
REMARK  164  A    between atoms: _421  and  _422
REMARK  165  A    between atoms: _421  and  _424
REMARK  166  A    between atoms: _424  and  _425
REMARK  167  A    between atoms: _425  and  _426
REMARK  168  A    between atoms: _426  and  _427
REMARK  169  A    between atoms: _436  and  _438
REMARK  170  A    between atoms: _438  and  _439
REMARK  171  A    between atoms: _438  and  _441
REMARK  172  A    between atoms: _441  and  _442
REMARK  173  A    between atoms: _447  and  _449
REMARK  174  A    between atoms: _449  and  _450
REMARK  175  A    between atoms: _449  and  _452
REMARK  176  A    between atoms: _452  and  _453
REMARK  177  A    between atoms: _453  and  _454
REMARK  178  A    between atoms: _454  and  _455
REMARK  179  A    between atoms: _464  and  _466
REMARK  180  A    between atoms: _466  and  _467
REMARK  181  A    between atoms: _470  and  _472
REMARK  182  A    between atoms: _472  and  _473
REMARK  183  A    between atoms: _475  and  _477
REMARK  184  A    between atoms: _477  and  _478
REMARK  185  A    between atoms: _477  and  _480
REMARK  186  A    between atoms: _480  and  _481
REMARK  187  A    between atoms: _491  and  _493
REMARK  188  A    between atoms: _493  and  _494
REMARK  189  A    between atoms: _493  and  _496
REMARK  190  A    between atoms: _496  and  _497
REMARK  191  A    between atoms: _498  and  _500
REMARK  192  A    between atoms: _500  and  _501
REMARK  193  A    between atoms: _504  and  _506
REMARK  194  A    between atoms: _506  and  _507
REMARK  195  A    between atoms: _506  and  _509
REMARK  196  A    between atoms: _509  and  _510
REMARK  197  A    between atoms: _513  and  _515
REMARK  198  A    between atoms: _515  and  _516
REMARK  199  A    between atoms: _515  and  _518
REMARK  200  A    between atoms: _518  and  _519
REMARK  201  A    between atoms: _524  and  _525
REMARK  202  A    between atoms: _527  and  _529
REMARK  203  A    between atoms: _529  and  _530
REMARK  204  A    between atoms: _529  and  _532
REMARK  205  A    between atoms: _532  and  _533
REMARK  206  A    between atoms: _535  and  _537
REMARK  207  A    between atoms: _537  and  _538
REMARK  208  A    between atoms: _537  and  _540
REMARK  209  A    between atoms: _540  and  _541
REMARK  210  A    between atoms: _547  and  _549
REMARK  211  A    between atoms: _549  and  _550
REMARK  212  A    between atoms: _549  and  _552
REMARK  213  A    between atoms: _552  and  _553
REMARK  214  A    between atoms: _556  and  _558
REMARK  215  A    between atoms: _558  and  _559
REMARK  216  A    between atoms: _558  and  _561
REMARK  217  A    between atoms: _561  and  _562
REMARK  218  A    between atoms: _562  and  _563
REMARK  219  A    between atoms: _565  and  _567
REMARK  220  A    between atoms: _567  and  _568
REMARK  221  A    between atoms: _567  and  _570
REMARK  222  A    between atoms: _570  and  _571
REMARK  223  A    between atoms: _573  and  _575
REMARK  224  A    between atoms: _575  and  _576
REMARK  225  A    between atoms: _575  and  _578
REMARK  226  A    between atoms: _578  and  _579
REMARK  227  A    between atoms: _581  and  _583
REMARK  228  A    between atoms: _583  and  _584
REMARK  229  A    between atoms: _583  and  _586
REMARK  230  A    between atoms: _586  and  _587
REMARK  231  A    between atoms: _592  and  _594
REMARK  232  A    between atoms: _594  and  _595
REMARK  233  A    between atoms: _594  and  _597
REMARK  234  A    between atoms: _597  and  _598
REMARK  235  A    between atoms: _603  and  _605
REMARK  236  A    between atoms: _605  and  _606
REMARK  237  A    between atoms: _605  and  _608
REMARK  238  A    between atoms: _608  and  _609
REMARK  239  A    between atoms: _612  and  _614
REMARK  240  A    between atoms: _614  and  _615
REMARK  241  A    between atoms: _618  and  _620
REMARK  242  A    between atoms: _620  and  _621
REMARK  243  A    between atoms: _620  and  _623
REMARK  244  A    between atoms: _623  and  _624
REMARK  245  A    between atoms: _629  and  _631
REMARK  246  A    between atoms: _631  and  _632
REMARK  247  A    between atoms: _631  and  _634
REMARK  248  A    between atoms: _634  and  _635
REMARK  249  A    between atoms: _640  and  _641
REMARK  250  A    between atoms: _643  and  _645
REMARK  251  A    between atoms: _645  and  _646
REMARK  252  A    between atoms: _645  and  _648
REMARK  253  A    between atoms: _648  and  _649
REMARK  254  A    between atoms: _654  and  _655
REMARK  255  A    between atoms: _657  and  _659
REMARK  256  A    between atoms: _659  and  _660
REMARK  257  A    between atoms: _659  and  _662
REMARK  258  A    between atoms: _665  and  _667
REMARK  259  A    between atoms: _667  and  _668
REMARK  260  A    between atoms: _667  and  _670
REMARK  261  A    between atoms: _670  and  _671
REMARK  262  A    between atoms: _676  and  _678
REMARK  263  A    between atoms: _678  and  _679
REMARK  264  A    between atoms: _682  and  _684
REMARK  265  A    between atoms: _684  and  _685
REMARK  266  A    between atoms: _684  and  _687
REMARK  267  A    between atoms: _687  and  _688
REMARK  268  A    between atoms: _688  and  _689
REMARK  269  A    between atoms: _689  and  _690
REMARK  270  A    between atoms: _699  and  _701
REMARK  271  A    between atoms: _701  and  _702
REMARK  272  A    between atoms: _701  and  _704
REMARK  273  A    between atoms: _704  and  _705
REMARK  274  A    between atoms: _708  and  _710
REMARK  275  A    between atoms: _710  and  _711
REMARK  276  A    between atoms: _710  and  _713
REMARK  277  A    between atoms: _713  and  _714
REMARK  278  A    between atoms: _717  and  _719
REMARK  279  A    between atoms: _719  and  _720
REMARK  280  A    between atoms: _719  and  _722
REMARK  281  A    between atoms: _722  and  _723
REMARK                            x       y       z     vdW  Elec       q    Type
REMARK                         _______ _______ _______ _____ _____    ______ ____
ROOT
ATOM      1  O   HOH     1       8.767  19.652  25.293  0.00  0.00    +0.000 OA
ENDROOT
TORSDOF 0
REMARK  Name = ../refined-set-2016/1qka/1qka_pocket.pdb
REMARK  281 active torsions:
REMARK  status: ('A' for Active; 'I' for Inactive)
REMARK    1  A    between atoms: _1  and  _3
REMARK    2  A    between atoms: _3  and  _4
REMARK    3  A    between atoms: _3  and  _6
REMARK    4  A    between atoms: _6  and  _7
REMARK    5  A    between atoms: _12  and  _14
REMARK    6  A    between atoms: _14  and  _15
REMARK    7  A    between atoms: _17  and  _19
REMARK    8  A    between atoms: _19  and  _20
REMARK    9  A    between atoms: _19  and  _22
REMARK   10  A    between atoms: _22  and  _23
REMARK   11  A    between atoms: _25  and  _27
REMARK   12  A    between atoms: _27  and  _28
REMARK   13  A    between atoms: _27  and  _30
REMARK   14  A    between atoms: _30  and  _31
REMARK   15  A    between atoms: _31  and  _32
REMARK   16  A    between atoms: _37  and  _39
REMARK   17  A    between atoms: _39  and  _40
REMARK   18  A    between atoms: _39  and  _42
REMARK   19  A    between atoms: _42  and  _43
REMARK   20  A    between atoms: _46  and  _48
REMARK   21  A    between atoms: _48  and  _49
REMARK   22  A    between atoms: _48  and  _51
REMARK   23  A    between atoms: _51  and  _52
REMARK   24  A    between atoms: _52  and  _53
REMARK   25  A    between atoms: _56  and  _58
REMARK   26  A    between atoms: _58  and  _59
REMARK   27  A    between atoms: _61  and  _63
REMARK   28  A    between atoms: _63  and  _64
REMARK   29  A    between atoms: _63  and  _66
REMARK   30  A    between atoms: _70  and  _71
REMARK   31  A    between atoms: _76  and  _78
REMARK   32  A    between atoms: _78  and  _79
REMARK   33  A    between atoms: _78  and  _81
REMARK   34  A    between atoms: _81  and  _82
REMARK   35  A    between atoms: _82  and  _83
REMARK   36  A    between atoms: _86  and  _88
REMARK   37  A    between atoms: _88  and  _89
REMARK   38  A    between atoms: _88  and  _91
REMARK   39  A    between atoms: _91  and  _92
REMARK   40  A    between atoms: _94  and  _96
REMARK   41  A    between atoms: _96  and  _97
REMARK   42  A    between atoms: _96  and  _99
REMARK   43  A    between atoms: _99  and  _100
REMARK   44  A    between atoms: _105  and  _107
REMARK   45  A    between atoms: _107  and  _108
REMARK   46  A    between atoms: _107  and  _110
REMARK   47  A    between atoms: _110  and  _111
REMARK   48  A    between atoms: _111  and  _112
REMARK   49  A    between atoms: _112  and  _113
REMARK   50  A    between atoms: _123  and  _124
REMARK   51  A    between atoms: _129  and  _131
REMARK   52  A    between atoms: _131  and  _132
REMARK   53  A    between atoms: _131  and  _134
REMARK   54  A    between atoms: _134  and  _135
REMARK   55  A    between atoms: _140  and  _141
REMARK   56  A    between atoms: _143  and  _145
REMARK   57  A    between atoms: _145  and  _146
REMARK   58  A    between atoms: _145  and  _148
REMARK   59  A    between atoms: _148  and  _149
REMARK   60  A    between atoms: _154  and  _155
REMARK   61  A    between atoms: _157  and  _159
REMARK   62  A    between atoms: _159  and  _160
REMARK   63  A    between atoms: _159  and  _162
REMARK   64  A    between atoms: _162  and  _163
REMARK   65  A    between atoms: _168  and  _169
REMARK   66  A    between atoms: _171  and  _173
REMARK   67  A    between atoms: _173  and  _174
REMARK   68  A    between atoms: _173  and  _176
REMARK   69  A    between atoms: _179  and  _181
REMARK   70  A    between atoms: _181  and  _182
REMARK   71  A    between atoms: _181  and  _184
REMARK   72  A    between atoms: _184  and  _185
REMARK   73  A    between atoms: _191  and  _192
REMARK   74  A    between atoms: _197  and  _199
REMARK   75  A    between atoms: _199  and  _200
REMARK   76  A    between atoms: _199  and  _202
REMARK   77  A    between atoms: _202  and  _203
REMARK   78  A    between atoms: _205  and  _207
REMARK   79  A    between atoms: _207  and  _208
REMARK   80  A    between atoms: _207  and  _210
REMARK   81  A    between atoms: _210  and  _211
REMARK   82  A    between atoms: _211  and  _212
REMARK   83  A    between atoms: _215  and  _217
REMARK   84  A    between atoms: _217  and  _218
REMARK   85  A    between atoms: _217  and  _220
REMARK   86  A    between atoms: _220  and  _221
REMARK   87  A    between atoms: _226  and  _227
REMARK   88  A    between atoms: _229  and  _231
REMARK   89  A    between atoms: _231  and  _232
REMARK   90  A    between atoms: _231  and  _234
REMARK   91  A    between atoms: _234  and  _235
REMARK   92  A    between atoms: _240  and  _242
REMARK   93  A    between atoms: _242  and  _243
REMARK   94  A    between atoms: _242  and  _245
REMARK   95  A    between atoms: _245  and  _246
REMARK   96  A    between atoms: _251  and  _253
REMARK   97  A    between atoms: _253  and  _254
REMARK   98  A    between atoms: _253  and  _256
REMARK   99  A    between atoms: _256  and  _257
REMARK  100  A    between atoms: _257  and  _258
REMARK  101  A    between atoms: _260  and  _262
REMARK  102  A    between atoms: _262  and  _263
REMARK  103  A    between atoms: _262  and  _265
REMARK  104  A    between atoms: _265  and  _266
REMARK  105  A    between atoms: _271  and  _272
REMARK  106  A    between atoms: _274  and  _276
REMARK  107  A    between atoms: _276  and  _277
REMARK  108  A    between atoms: _276  and  _279
REMARK  109  A    between atoms: _279  and  _280
REMARK  110  A    between atoms: _283  and  _285
REMARK  111  A    between atoms: _285  and  _286
REMARK  112  A    between atoms: _285  and  _288
REMARK  113  A    between atoms: _288  and  _289
REMARK  114  A    between atoms: _289  and  _497
REMARK  115  A    between atoms: _290  and  _292
REMARK  116  A    between atoms: _292  and  _293
REMARK  117  A    between atoms: _292  and  _295
REMARK  118  A    between atoms: _295  and  _296
REMARK  119  A    between atoms: _299  and  _301
REMARK  120  A    between atoms: _301  and  _302
REMARK  121  A    between atoms: _301  and  _304
REMARK  122  A    between atoms: _304  and  _305
REMARK  123  A    between atoms: _310  and  _311
REMARK  124  A    between atoms: _313  and  _315
REMARK  125  A    between atoms: _315  and  _316
REMARK  126  A    between atoms: _315  and  _318
REMARK  127  A    between atoms: _318  and  _319
REMARK  128  A    between atoms: _324  and  _325
REMARK  129  A    between atoms: _327  and  _329
REMARK  130  A    between atoms: _329  and  _330
REMARK  131  A    between atoms: _329  and  _332
REMARK  132  A    between atoms: _332  and  _333
REMARK  133  A    between atoms: _333  and  _334
REMARK  134  A    between atoms: _337  and  _339
REMARK  135  A    between atoms: _339  and  _340
REMARK  136  A    between atoms: _339  and  _342
REMARK  137  A    between atoms: _342  and  _343
REMARK  138  A    between atoms: _348  and  _349
REMARK  139  A    between atoms: _351  and  _353
REMARK  140  A    between atoms: _353  and  _354
REMARK  141  A    between atoms: _353  and  _356
REMARK  142  A    between atoms: _356  and  _357
REMARK  143  A    between atoms: _362  and  _364
REMARK  144  A    between atoms: _364  and  _365
REMARK  145  A    between atoms: _364  and  _367
REMARK  146  A    between atoms: _367  and  _368
REMARK  147  A    between atoms: _371  and  _373
REMARK  148  A    between atoms: _373  and  _374
REMARK  149  A    between atoms: _373  and  _376
REMARK  150  A    between atoms: _376  and  _377
REMARK  151  A    between atoms: _382  and  _384
REMARK  152  A    between atoms: _384  and  _385
REMARK  153  A    between atoms: _384  and  _387
REMARK  154  A    between atoms: _387  and  _388
REMARK  155  A    between atoms: _398  and  _400
REMARK  156  A    between atoms: _400  and  _401
REMARK  157  A    between atoms: _400  and  _403
REMARK  158  A    between atoms: _403  and  _404
REMARK  159  A    between atoms: _410  and  _412
REMARK  160  A    between atoms: _412  and  _413
REMARK  161  A    between atoms: _412  and  _415
REMARK  162  A    between atoms: _415  and  _416
REMARK  163  A    between atoms: _419  and  _421
REMARK  164  A    between atoms: _421  and  _422
REMARK  165  A    between atoms: _421  and  _424
REMARK  166  A    between atoms: _424  and  _425
REMARK  167  A    between atoms: _425  and  _426
REMARK  168  A    between atoms: _426  and  _427
REMARK  169  A    between atoms: _436  and  _438
REMARK  170  A    between atoms: _438  and  _439
REMARK  171  A    between atoms: _438  and  _441
REMARK  172  A    between atoms: _441  and  _442
REMARK  173  A    between atoms: _447  and  _449
REMARK  174  A    between atoms: _449  and  _450
REMARK  175  A    between atoms: _449  and  _452
REMARK  176  A    between atoms: _452  and  _453
REMARK  177  A    between atoms: _453  and  _454
REMARK  178  A    between atoms: _454  and  _455
REMARK  179  A    between atoms: _464  and  _466
REMARK  180  A    between atoms: _466  and  _467
REMARK  181  A    between atoms: _470  and  _472
REMARK  182  A    between atoms: _472  and  _473
REMARK  183  A    between atoms: _475  and  _477
REMARK  184  A    between atoms: _477  and  _478
REMARK  185  A    between atoms: _477  and  _480
REMARK  186  A    between atoms: _480  and  _481
REMARK  187  A    between atoms: _491  and  _493
REMARK  188  A    between atoms: _493  and  _494
REMARK  189  A    between atoms: _493  and  _496
REMARK  190  A    between atoms: _496  and  _497
REMARK  191  A    between atoms: _498  and  _500
REMARK  192  A    between atoms: _500  and  _501
REMARK  193  A    between atoms: _504  and  _506
REMARK  194  A    between atoms: _506  and  _507
REMARK  195  A    between atoms: _506  and  _509
REMARK  196  A    between atoms: _509  and  _510
REMARK  197  A    between atoms: _513  and  _515
REMARK  198  A    between atoms: _515  and  _516
REMARK  199  A    between atoms: _515  and  _518
REMARK  200  A    between atoms: _518  and  _519
REMARK  201  A    between atoms: _524  and  _525
REMARK  202  A    between atoms: _527  and  _529
REMARK  203  A    between atoms: _529  and  _530
REMARK  204  A    between atoms: _529  and  _532
REMARK  205  A    between atoms: _532  and  _533
REMARK  206  A    between atoms: _535  and  _537
REMARK  207  A    between atoms: _537  and  _538
REMARK  208  A    between atoms: _537  and  _540
REMARK  209  A    between atoms: _540  and  _541
REMARK  210  A    between atoms: _547  and  _549
REMARK  211  A    between atoms: _549  and  _550
REMARK  212  A    between atoms: _549  and  _552
REMARK  213  A    between atoms: _552  and  _553
REMARK  214  A    between atoms: _556  and  _558
REMARK  215  A    between atoms: _558  and  _559
REMARK  216  A    between atoms: _558  and  _561
REMARK  217  A    between atoms: _561  and  _562
REMARK  218  A    between atoms: _562  and  _563
REMARK  219  A    between atoms: _565  and  _567
REMARK  220  A    between atoms: _567  and  _568
REMARK  221  A    between atoms: _567  and  _570
REMARK  222  A    between atoms: _570  and  _571
REMARK  223  A    between atoms: _573  and  _575
REMARK  224  A    between atoms: _575  and  _576
REMARK  225  A    between atoms: _575  and  _578
REMARK  226  A    between atoms: _578  and  _579
REMARK  227  A    between atoms: _581  and  _583
REMARK  228  A    between atoms: _583  and  _584
REMARK  229  A    between atoms: _583  and  _586
REMARK  230  A    between atoms: _586  and  _587
REMARK  231  A    between atoms: _592  and  _594
REMARK  232  A    between atoms: _594  and  _595
REMARK  233  A    between atoms: _594  and  _597
REMARK  234  A    between atoms: _597  and  _598
REMARK  235  A    between atoms: _603  and  _605
REMARK  236  A    between atoms: _605  and  _606
REMARK  237  A    between atoms: _605  and  _608
REMARK  238  A    between atoms: _608  and  _609
REMARK  239  A    between atoms: _612  and  _614
REMARK  240  A    between atoms: _614  and  _615
REMARK  241  A    between atoms: _618  and  _620
REMARK  242  A    between atoms: _620  and  _621
REMARK  243  A    between atoms: _620  and  _623
REMARK  244  A    between atoms: _623  and  _624
REMARK  245  A    between atoms: _629  and  _631
REMARK  246  A    between atoms: _631  and  _632
REMARK  247  A    between atoms: _631  and  _634
REMARK  248  A    between atoms: _634  and  _635
REMARK  249  A    between atoms: _640  and  _641
REMARK  250  A    between atoms: _643  and  _645
REMARK  251  A    between atoms: _645  and  _646
REMARK  252  A    between atoms: _645  and  _648
REMARK  253  A    between atoms: _648  and  _649
REMARK  254  A    between atoms: _654  and  _655
REMARK  255  A    between atoms: _657  and  _659
REMARK  256  A    between atoms: _659  and  _660
REMARK  257  A    between atoms: _659  and  _662
REMARK  258  A    between atoms: _665  and  _667
REMARK  259  A    between atoms: _667  and  _668
REMARK  260  A    between atoms: _667  and  _670
REMARK  261  A    between atoms: _670  and  _671
REMARK  262  A    between atoms: _676  and  _678
REMARK  263  A    between atoms: _678  and  _679
REMARK  264  A    between atoms: _682  and  _684
REMARK  265  A    between atoms: _684  and  _685
REMARK  266  A    between atoms: _684  and  _687
REMARK  267  A    between atoms: _687  and  _688
REMARK  268  A    between atoms: _688  and  _689
REMARK  269  A    between atoms: _689  and  _690
REMARK  270  A    between atoms: _699  and  _701
REMARK  271  A    between atoms: _701  and  _702
REMARK  272  A    between atoms: _701  and  _704
REMARK  273  A    between atoms: _704  and  _705
REMARK  274  A    between atoms: _708  and  _710
REMARK  275  A    between atoms: _710  and  _711
REMARK  276  A    between atoms: _710  and  _713
REMARK  277  A    between atoms: _713  and  _714
REMARK  278  A    between atoms: _717  and  _719
REMARK  279  A    between atoms: _719  and  _720
REMARK  280  A    between atoms: _719  and  _722
REMARK  281  A    between atoms: _722  and  _723
REMARK                            x       y       z     vdW  Elec       q    Type
REMARK                         _______ _______ _______ _____ _____    ______ ____
ROOT
ATOM      1  O   HOH     1      14.295  26.239  19.524  0.00  0.00    +0.000 OA
ENDROOT
TORSDOF 0
REMARK  Name = ../refined-set-2016/1qka/1qka_pocket.pdb
REMARK  281 active torsions:
REMARK  status: ('A' for Active; 'I' for Inactive)
REMARK    1  A    between atoms: _1  and  _3
REMARK    2  A    between atoms: _3  and  _4
REMARK    3  A    between atoms: _3  and  _6
REMARK    4  A    between atoms: _6  and  _7
REMARK    5  A    between atoms: _12  and  _14
REMARK    6  A    between atoms: _14  and  _15
REMARK    7  A    between atoms: _17  and  _19
REMARK    8  A    between atoms: _19  and  _20
REMARK    9  A    between atoms: _19  and  _22
REMARK   10  A    between atoms: _22  and  _23
REMARK   11  A    between atoms: _25  and  _27
REMARK   12  A    between atoms: _27  and  _28
REMARK   13  A    between atoms: _27  and  _30
REMARK   14  A    between atoms: _30  and  _31
REMARK   15  A    between atoms: _31  and  _32
REMARK   16  A    between atoms: _37  and  _39
REMARK   17  A    between atoms: _39  and  _40
REMARK   18  A    between atoms: _39  and  _42
REMARK   19  A    between atoms: _42  and  _43
REMARK   20  A    between atoms: _46  and  _48
REMARK   21  A    between atoms: _48  and  _49
REMARK   22  A    between atoms: _48  and  _51
REMARK   23  A    between atoms: _51  and  _52
REMARK   24  A    between atoms: _52  and  _53
REMARK   25  A    between atoms: _56  and  _58
REMARK   26  A    between atoms: _58  and  _59
REMARK   27  A    between atoms: _61  and  _63
REMARK   28  A    between atoms: _63  and  _64
REMARK   29  A    between atoms: _63  and  _66
REMARK   30  A    between atoms: _70  and  _71
REMARK   31  A    between atoms: _76  and  _78
REMARK   32  A    between atoms: _78  and  _79
REMARK   33  A    between atoms: _78  and  _81
REMARK   34  A    between atoms: _81  and  _82
REMARK   35  A    between atoms: _82  and  _83
REMARK   36  A    between atoms: _86  and  _88
REMARK   37  A    between atoms: _88  and  _89
REMARK   38  A    between atoms: _88  and  _91
REMARK   39  A    between atoms: _91  and  _92
REMARK   40  A    between atoms: _94  and  _96
REMARK   41  A    between atoms: _96  and  _97
REMARK   42  A    between atoms: _96  and  _99
REMARK   43  A    between atoms: _99  and  _100
REMARK   44  A    between atoms: _105  and  _107
REMARK   45  A    between atoms: _107  and  _108
REMARK   46  A    between atoms: _107  and  _110
REMARK   47  A    between atoms: _110  and  _111
REMARK   48  A    between atoms: _111  and  _112
REMARK   49  A    between atoms: _112  and  _113
REMARK   50  A    between atoms: _123  and  _124
REMARK   51  A    between atoms: _129  and  _131
REMARK   52  A    between atoms: _131  and  _132
REMARK   53  A    between atoms: _131  and  _134
REMARK   54  A    between atoms: _134  and  _135
REMARK   55  A    between atoms: _140  and  _141
REMARK   56  A    between atoms: _143  and  _145
REMARK   57  A    between atoms: _145  and  _146
REMARK   58  A    between atoms: _145  and  _148
REMARK   59  A    between atoms: _148  and  _149
REMARK   60  A    between atoms: _154  and  _155
REMARK   61  A    between atoms: _157  and  _159
REMARK   62  A    between atoms: _159  and  _160
REMARK   63  A    between atoms: _159  and  _162
REMARK   64  A    between atoms: _162  and  _163
REMARK   65  A    between atoms: _168  and  _169
REMARK   66  A    between atoms: _171  and  _173
REMARK   67  A    between atoms: _173  and  _174
REMARK   68  A    between atoms: _173  and  _176
REMARK   69  A    between atoms: _179  and  _181
REMARK   70  A    between atoms: _181  and  _182
REMARK   71  A    between atoms: _181  and  _184
REMARK   72  A    between atoms: _184  and  _185
REMARK   73  A    between atoms: _191  and  _192
REMARK   74  A    between atoms: _197  and  _199
REMARK   75  A    between atoms: _199  and  _200
REMARK   76  A    between atoms: _199  and  _202
REMARK   77  A    between atoms: _202  and  _203
REMARK   78  A    between atoms: _205  and  _207
REMARK   79  A    between atoms: _207  and  _208
REMARK   80  A    between atoms: _207  and  _210
REMARK   81  A    between atoms: _210  and  _211
REMARK   82  A    between atoms: _211  and  _212
REMARK   83  A    between atoms: _215  and  _217
REMARK   84  A    between atoms: _217  and  _218
REMARK   85  A    between atoms: _217  and  _220
REMARK   86  A    between atoms: _220  and  _221
REMARK   87  A    between atoms: _226  and  _227
REMARK   88  A    between atoms: _229  and  _231
REMARK   89  A    between atoms: _231  and  _232
REMARK   90  A    between atoms: _231  and  _234
REMARK   91  A    between atoms: _234  and  _235
REMARK   92  A    between atoms: _240  and  _242
REMARK   93  A    between atoms: _242  and  _243
REMARK   94  A    between atoms: _242  and  _245
REMARK   95  A    between atoms: _245  and  _246
REMARK   96  A    between atoms: _251  and  _253
REMARK   97  A    between atoms: _253  and  _254
REMARK   98  A    between atoms: _253  and  _256
REMARK   99  A    between atoms: _256  and  _257
REMARK  100  A    between atoms: _257  and  _258
REMARK  101  A    between atoms: _260  and  _262
REMARK  102  A    between atoms: _262  and  _263
REMARK  103  A    between atoms: _262  and  _265
REMARK  104  A    between atoms: _265  and  _266
REMARK  105  A    between atoms: _271  and  _272
REMARK  106  A    between atoms: _274  and  _276
REMARK  107  A    between atoms: _276  and  _277
REMARK  108  A    between atoms: _276  and  _279
REMARK  109  A    between atoms: _279  and  _280
REMARK  110  A    between atoms: _283  and  _285
REMARK  111  A    between atoms: _285  and  _286
REMARK  112  A    between atoms: _285  and  _288
REMARK  113  A    between atoms: _288  and  _289
REMARK  114  A    between atoms: _289  and  _497
REMARK  115  A    between atoms: _290  and  _292
REMARK  116  A    between atoms: _292  and  _293
REMARK  117  A    between atoms: _292  and  _295
REMARK  118  A    between atoms: _295  and  _296
REMARK  119  A    between atoms: _299  and  _301
REMARK  120  A    between atoms: _301  and  _302
REMARK  121  A    between atoms: _301  and  _304
REMARK  122  A    between atoms: _304  and  _305
REMARK  123  A    between atoms: _310  and  _311
REMARK  124  A    between atoms: _313  and  _315
REMARK  125  A    between atoms: _315  and  _316
REMARK  126  A    between atoms: _315  and  _318
REMARK  127  A    between atoms: _318  and  _319
REMARK  128  A    between atoms: _324  and  _325
REMARK  129  A    between atoms: _327  and  _329
REMARK  130  A    between atoms: _329  and  _330
REMARK  131  A    between atoms: _329  and  _332
REMARK  132  A    between atoms: _332  and  _333
REMARK  133  A    between atoms: _333  and  _334
REMARK  134  A    between atoms: _337  and  _339
REMARK  135  A    between atoms: _339  and  _340
REMARK  136  A    between atoms: _339  and  _342
REMARK  137  A    between atoms: _342  and  _343
REMARK  138  A    between atoms: _348  and  _349
REMARK  139  A    between atoms: _351  and  _353
REMARK  140  A    between atoms: _353  and  _354
REMARK  141  A    between atoms: _353  and  _356
REMARK  142  A    between atoms: _356  and  _357
REMARK  143  A    between atoms: _362  and  _364
REMARK  144  A    between atoms: _364  and  _365
REMARK  145  A    between atoms: _364  and  _367
REMARK  146  A    between atoms: _367  and  _368
REMARK  147  A    between atoms: _371  and  _373
REMARK  148  A    between atoms: _373  and  _374
REMARK  149  A    between atoms: _373  and  _376
REMARK  150  A    between atoms: _376  and  _377
REMARK  151  A    between atoms: _382  and  _384
REMARK  152  A    between atoms: _384  and  _385
REMARK  153  A    between atoms: _384  and  _387
REMARK  154  A    between atoms: _387  and  _388
REMARK  155  A    between atoms: _398  and  _400
REMARK  156  A    between atoms: _400  and  _401
REMARK  157  A    between atoms: _400  and  _403
REMARK  158  A    between atoms: _403  and  _404
REMARK  159  A    between atoms: _410  and  _412
REMARK  160  A    between atoms: _412  and  _413
REMARK  161  A    between atoms: _412  and  _415
REMARK  162  A    between atoms: _415  and  _416
REMARK  163  A    between atoms: _419  and  _421
REMARK  164  A    between atoms: _421  and  _422
REMARK  165  A    between atoms: _421  and  _424
REMARK  166  A    between atoms: _424  and  _425
REMARK  167  A    between atoms: _425  and  _426
REMARK  168  A    between atoms: _426  and  _427
REMARK  169  A    between atoms: _436  and  _438
REMARK  170  A    between atoms: _438  and  _439
REMARK  171  A    between atoms: _438  and  _441
REMARK  172  A    between atoms: _441  and  _442
REMARK  173  A    between atoms: _447  and  _449
REMARK  174  A    between atoms: _449  and  _450
REMARK  175  A    between atoms: _449  and  _452
REMARK  176  A    between atoms: _452  and  _453
REMARK  177  A    between atoms: _453  and  _454
REMARK  178  A    between atoms: _454  and  _455
REMARK  179  A    between atoms: _464  and  _466
REMARK  180  A    between atoms: _466  and  _467
REMARK  181  A    between atoms: _470  and  _472
REMARK  182  A    between atoms: _472  and  _473
REMARK  183  A    between atoms: _475  and  _477
REMARK  184  A    between atoms: _477  and  _478
REMARK  185  A    between atoms: _477  and  _480
REMARK  186  A    between atoms: _480  and  _481
REMARK  187  A    between atoms: _491  and  _493
REMARK  188  A    between atoms: _493  and  _494
REMARK  189  A    between atoms: _493  and  _496
REMARK  190  A    between atoms: _496  and  _497
REMARK  191  A    between atoms: _498  and  _500
REMARK  192  A    between atoms: _500  and  _501
REMARK  193  A    between atoms: _504  and  _506
REMARK  194  A    between atoms: _506  and  _507
REMARK  195  A    between atoms: _506  and  _509
REMARK  196  A    between atoms: _509  and  _510
REMARK  197  A    between atoms: _513  and  _515
REMARK  198  A    between atoms: _515  and  _516
REMARK  199  A    between atoms: _515  and  _518
REMARK  200  A    between atoms: _518  and  _519
REMARK  201  A    between atoms: _524  and  _525
REMARK  202  A    between atoms: _527  and  _529
REMARK  203  A    between atoms: _529  and  _530
REMARK  204  A    between atoms: _529  and  _532
REMARK  205  A    between atoms: _532  and  _533
REMARK  206  A    between atoms: _535  and  _537
REMARK  207  A    between atoms: _537  and  _538
REMARK  208  A    between atoms: _537  and  _540
REMARK  209  A    between atoms: _540  and  _541
REMARK  210  A    between atoms: _547  and  _549
REMARK  211  A    between atoms: _549  and  _550
REMARK  212  A    between atoms: _549  and  _552
REMARK  213  A    between atoms: _552  and  _553
REMARK  214  A    between atoms: _556  and  _558
REMARK  215  A    between atoms: _558  and  _559
REMARK  216  A    between atoms: _558  and  _561
REMARK  217  A    between atoms: _561  and  _562
REMARK  218  A    between atoms: _562  and  _563
REMARK  219  A    between atoms: _565  and  _567
REMARK  220  A    between atoms: _567  and  _568
REMARK  221  A    between atoms: _567  and  _570
REMARK  222  A    between atoms: _570  and  _571
REMARK  223  A    between atoms: _573  and  _575
REMARK  224  A    between atoms: _575  and  _576
REMARK  225  A    between atoms: _575  and  _578
REMARK  226  A    between atoms: _578  and  _579
REMARK  227  A    between atoms: _581  and  _583
REMARK  228  A    between atoms: _583  and  _584
REMARK  229  A    between atoms: _583  and  _586
REMARK  230  A    between atoms: _586  and  _587
REMARK  231  A    between atoms: _592  and  _594
REMARK  232  A    between atoms: _594  and  _595
REMARK  233  A    between atoms: _594  and  _597
REMARK  234  A    between atoms: _597  and  _598
REMARK  235  A    between atoms: _603  and  _605
REMARK  236  A    between atoms: _605  and  _606
REMARK  237  A    between atoms: _605  and  _608
REMARK  238  A    between atoms: _608  and  _609
REMARK  239  A    between atoms: _612  and  _614
REMARK  240  A    between atoms: _614  and  _615
REMARK  241  A    between atoms: _618  and  _620
REMARK  242  A    between atoms: _620  and  _621
REMARK  243  A    between atoms: _620  and  _623
REMARK  244  A    between atoms: _623  and  _624
REMARK  245  A    between atoms: _629  and  _631
REMARK  246  A    between atoms: _631  and  _632
REMARK  247  A    between atoms: _631  and  _634
REMARK  248  A    between atoms: _634  and  _635
REMARK  249  A    between atoms: _640  and  _641
REMARK  250  A    between atoms: _643  and  _645
REMARK  251  A    between atoms: _645  and  _646
REMARK  252  A    between atoms: _645  and  _648
REMARK  253  A    between atoms: _648  and  _649
REMARK  254  A    between atoms: _654  and  _655
REMARK  255  A    between atoms: _657  and  _659
REMARK  256  A    between atoms: _659  and  _660
REMARK  257  A    between atoms: _659  and  _662
REMARK  258  A    between atoms: _665  and  _667
REMARK  259  A    between atoms: _667  and  _668
REMARK  260  A    between atoms: _667  and  _670
REMARK  261  A    between atoms: _670  and  _671
REMARK  262  A    between atoms: _676  and  _678
REMARK  263  A    between atoms: _678  and  _679
REMARK  264  A    between atoms: _682  and  _684
REMARK  265  A    between atoms: _684  and  _685
REMARK  266  A    between atoms: _684  and  _687
REMARK  267  A    between atoms: _687  and  _688
REMARK  268  A    between atoms: _688  and  _689
REMARK  269  A    between atoms: _689  and  _690
REMARK  270  A    between atoms: _699  and  _701
REMARK  271  A    between atoms: _701  and  _702
REMARK  272  A    between atoms: _701  and  _704
REMARK  273  A    between atoms: _704  and  _705
REMARK  274  A    between atoms: _708  and  _710
REMARK  275  A    between atoms: _710  and  _711
REMARK  276  A    between atoms: _710  and  _713
REMARK  277  A    between atoms: _713  and  _714
REMARK  278  A    between atoms: _717  and  _719
REMARK  279  A    between atoms: _719  and  _720
REMARK  280  A    between atoms: _719  and  _722
REMARK  281  A    between atoms: _722  and  _723
REMARK                            x       y       z     vdW  Elec       q    Type
REMARK                         _______ _______ _______ _____ _____    ______ ____
ROOT
ATOM      1  O   HOH     1      -3.593  17.762   5.653  0.00  0.00    +0.000 OA
ENDROOT
TORSDOF 0
REMARK  Name = ../refined-set-2016/1qka/1qka_pocket.pdb
REMARK  281 active torsions:
REMARK  status: ('A' for Active; 'I' for Inactive)
REMARK    1  A    between atoms: _1  and  _3
REMARK    2  A    between atoms: _3  and  _4
REMARK    3  A    between atoms: _3  and  _6
REMARK    4  A    between atoms: _6  and  _7
REMARK    5  A    between atoms: _12  and  _14
REMARK    6  A    between atoms: _14  and  _15
REMARK    7  A    between atoms: _17  and  _19
REMARK    8  A    between atoms: _19  and  _20
REMARK    9  A    between atoms: _19  and  _22
REMARK   10  A    between atoms: _22  and  _23
REMARK   11  A    between atoms: _25  and  _27
REMARK   12  A    between atoms: _27  and  _28
REMARK   13  A    between atoms: _27  and  _30
REMARK   14  A    between atoms: _30  and  _31
REMARK   15  A    between atoms: _31  and  _32
REMARK   16  A    between atoms: _37  and  _39
REMARK   17  A    between atoms: _39  and  _40
REMARK   18  A    between atoms: _39  and  _42
REMARK   19  A    between atoms: _42  and  _43
REMARK   20  A    between atoms: _46  and  _48
REMARK   21  A    between atoms: _48  and  _49
REMARK   22  A    between atoms: _48  and  _51
REMARK   23  A    between atoms: _51  and  _52
REMARK   24  A    between atoms: _52  and  _53
REMARK   25  A    between atoms: _56  and  _58
REMARK   26  A    between atoms: _58  and  _59
REMARK   27  A    between atoms: _61  and  _63
REMARK   28  A    between atoms: _63  and  _64
REMARK   29  A    between atoms: _63  and  _66
REMARK   30  A    between atoms: _70  and  _71
REMARK   31  A    between atoms: _76  and  _78
REMARK   32  A    between atoms: _78  and  _79
REMARK   33  A    between atoms: _78  and  _81
REMARK   34  A    between atoms: _81  and  _82
REMARK   35  A    between atoms: _82  and  _83
REMARK   36  A    between atoms: _86  and  _88
REMARK   37  A    between atoms: _88  and  _89
REMARK   38  A    between atoms: _88  and  _91
REMARK   39  A    between atoms: _91  and  _92
REMARK   40  A    between atoms: _94  and  _96
REMARK   41  A    between atoms: _96  and  _97
REMARK   42  A    between atoms: _96  and  _99
REMARK   43  A    between atoms: _99  and  _100
REMARK   44  A    between atoms: _105  and  _107
REMARK   45  A    between atoms: _107  and  _108
REMARK   46  A    between atoms: _107  and  _110
REMARK   47  A    between atoms: _110  and  _111
REMARK   48  A    between atoms: _111  and  _112
REMARK   49  A    between atoms: _112  and  _113
REMARK   50  A    between atoms: _123  and  _124
REMARK   51  A    between atoms: _129  and  _131
REMARK   52  A    between atoms: _131  and  _132
REMARK   53  A    between atoms: _131  and  _134
REMARK   54  A    between atoms: _134  and  _135
REMARK   55  A    between atoms: _140  and  _141
REMARK   56  A    between atoms: _143  and  _145
REMARK   57  A    between atoms: _145  and  _146
REMARK   58  A    between atoms: _145  and  _148
REMARK   59  A    between atoms: _148  and  _149
REMARK   60  A    between atoms: _154  and  _155
REMARK   61  A    between atoms: _157  and  _159
REMARK   62  A    between atoms: _159  and  _160
REMARK   63  A    between atoms: _159  and  _162
REMARK   64  A    between atoms: _162  and  _163
REMARK   65  A    between atoms: _168  and  _169
REMARK   66  A    between atoms: _171  and  _173
REMARK   67  A    between atoms: _173  and  _174
REMARK   68  A    between atoms: _173  and  _176
REMARK   69  A    between atoms: _179  and  _181
REMARK   70  A    between atoms: _181  and  _182
REMARK   71  A    between atoms: _181  and  _184
REMARK   72  A    between atoms: _184  and  _185
REMARK   73  A    between atoms: _191  and  _192
REMARK   74  A    between atoms: _197  and  _199
REMARK   75  A    between atoms: _199  and  _200
REMARK   76  A    between atoms: _199  and  _202
REMARK   77  A    between atoms: _202  and  _203
REMARK   78  A    between atoms: _205  and  _207
REMARK   79  A    between atoms: _207  and  _208
REMARK   80  A    between atoms: _207  and  _210
REMARK   81  A    between atoms: _210  and  _211
REMARK   82  A    between atoms: _211  and  _212
REMARK   83  A    between atoms: _215  and  _217
REMARK   84  A    between atoms: _217  and  _218
REMARK   85  A    between atoms: _217  and  _220
REMARK   86  A    between atoms: _220  and  _221
REMARK   87  A    between atoms: _226  and  _227
REMARK   88  A    between atoms: _229  and  _231
REMARK   89  A    between atoms: _231  and  _232
REMARK   90  A    between atoms: _231  and  _234
REMARK   91  A    between atoms: _234  and  _235
REMARK   92  A    between atoms: _240  and  _242
REMARK   93  A    between atoms: _242  and  _243
REMARK   94  A    between atoms: _242  and  _245
REMARK   95  A    between atoms: _245  and  _246
REMARK   96  A    between atoms: _251  and  _253
REMARK   97  A    between atoms: _253  and  _254
REMARK   98  A    between atoms: _253  and  _256
REMARK   99  A    between atoms: _256  and  _257
REMARK  100  A    between atoms: _257  and  _258
REMARK  101  A    between atoms: _260  and  _262
REMARK  102  A    between atoms: _262  and  _263
REMARK  103  A    between atoms: _262  and  _265
REMARK  104  A    between atoms: _265  and  _266
REMARK  105  A    between atoms: _271  and  _272
REMARK  106  A    between atoms: _274  and  _276
REMARK  107  A    between atoms: _276  and  _277
REMARK  108  A    between atoms: _276  and  _279
REMARK  109  A    between atoms: _279  and  _280
REMARK  110  A    between atoms: _283  and  _285
REMARK  111  A    between atoms: _285  and  _286
REMARK  112  A    between atoms: _285  and  _288
REMARK  113  A    between atoms: _288  and  _289
REMARK  114  A    between atoms: _289  and  _497
REMARK  115  A    between atoms: _290  and  _292
REMARK  116  A    between atoms: _292  and  _293
REMARK  117  A    between atoms: _292  and  _295
REMARK  118  A    between atoms: _295  and  _296
REMARK  119  A    between atoms: _299  and  _301
REMARK  120  A    between atoms: _301  and  _302
REMARK  121  A    between atoms: _301  and  _304
REMARK  122  A    between atoms: _304  and  _305
REMARK  123  A    between atoms: _310  and  _311
REMARK  124  A    between atoms: _313  and  _315
REMARK  125  A    between atoms: _315  and  _316
REMARK  126  A    between atoms: _315  and  _318
REMARK  127  A    between atoms: _318  and  _319
REMARK  128  A    between atoms: _324  and  _325
REMARK  129  A    between atoms: _327  and  _329
REMARK  130  A    between atoms: _329  and  _330
REMARK  131  A    between atoms: _329  and  _332
REMARK  132  A    between atoms: _332  and  _333
REMARK  133  A    between atoms: _333  and  _334
REMARK  134  A    between atoms: _337  and  _339
REMARK  135  A    between atoms: _339  and  _340
REMARK  136  A    between atoms: _339  and  _342
REMARK  137  A    between atoms: _342  and  _343
REMARK  138  A    between atoms: _348  and  _349
REMARK  139  A    between atoms: _351  and  _353
REMARK  140  A    between atoms: _353  and  _354
REMARK  141  A    between atoms: _353  and  _356
REMARK  142  A    between atoms: _356  and  _357
REMARK  143  A    between atoms: _362  and  _364
REMARK  144  A    between atoms: _364  and  _365
REMARK  145  A    between atoms: _364  and  _367
REMARK  146  A    between atoms: _367  and  _368
REMARK  147  A    between atoms: _371  and  _373
REMARK  148  A    between atoms: _373  and  _374
REMARK  149  A    between atoms: _373  and  _376
REMARK  150  A    between atoms: _376  and  _377
REMARK  151  A    between atoms: _382  and  _384
REMARK  152  A    between atoms: _384  and  _385
REMARK  153  A    between atoms: _384  and  _387
REMARK  154  A    between atoms: _387  and  _388
REMARK  155  A    between atoms: _398  and  _400
REMARK  156  A    between atoms: _400  and  _401
REMARK  157  A    between atoms: _400  and  _403
REMARK  158  A    between atoms: _403  and  _404
REMARK  159  A    between atoms: _410  and  _412
REMARK  160  A    between atoms: _412  and  _413
REMARK  161  A    between atoms: _412  and  _415
REMARK  162  A    between atoms: _415  and  _416
REMARK  163  A    between atoms: _419  and  _421
REMARK  164  A    between atoms: _421  and  _422
REMARK  165  A    between atoms: _421  and  _424
REMARK  166  A    between atoms: _424  and  _425
REMARK  167  A    between atoms: _425  and  _426
REMARK  168  A    between atoms: _426  and  _427
REMARK  169  A    between atoms: _436  and  _438
REMARK  170  A    between atoms: _438  and  _439
REMARK  171  A    between atoms: _438  and  _441
REMARK  172  A    between atoms: _441  and  _442
REMARK  173  A    between atoms: _447  and  _449
REMARK  174  A    between atoms: _449  and  _450
REMARK  175  A    between atoms: _449  and  _452
REMARK  176  A    between atoms: _452  and  _453
REMARK  177  A    between atoms: _453  and  _454
REMARK  178  A    between atoms: _454  and  _455
REMARK  179  A    between atoms: _464  and  _466
REMARK  180  A    between atoms: _466  and  _467
REMARK  181  A    between atoms: _470  and  _472
REMARK  182  A    between atoms: _472  and  _473
REMARK  183  A    between atoms: _475  and  _477
REMARK  184  A    between atoms: _477  and  _478
REMARK  185  A    between atoms: _477  and  _480
REMARK  186  A    between atoms: _480  and  _481
REMARK  187  A    between atoms: _491  and  _493
REMARK  188  A    between atoms: _493  and  _494
REMARK  189  A    between atoms: _493  and  _496
REMARK  190  A    between atoms: _496  and  _497
REMARK  191  A    between atoms: _498  and  _500
REMARK  192  A    between atoms: _500  and  _501
REMARK  193  A    between atoms: _504  and  _506
REMARK  194  A    between atoms: _506  and  _507
REMARK  195  A    between atoms: _506  and  _509
REMARK  196  A    between atoms: _509  and  _510
REMARK  197  A    between atoms: _513  and  _515
REMARK  198  A    between atoms: _515  and  _516
REMARK  199  A    between atoms: _515  and  _518
REMARK  200  A    between atoms: _518  and  _519
REMARK  201  A    between atoms: _524  and  _525
REMARK  202  A    between atoms: _527  and  _529
REMARK  203  A    between atoms: _529  and  _530
REMARK  204  A    between atoms: _529  and  _532
REMARK  205  A    between atoms: _532  and  _533
REMARK  206  A    between atoms: _535  and  _537
REMARK  207  A    between atoms: _537  and  _538
REMARK  208  A    between atoms: _537  and  _540
REMARK  209  A    between atoms: _540  and  _541
REMARK  210  A    between atoms: _547  and  _549
REMARK  211  A    between atoms: _549  and  _550
REMARK  212  A    between atoms: _549  and  _552
REMARK  213  A    between atoms: _552  and  _553
REMARK  214  A    between atoms: _556  and  _558
REMARK  215  A    between atoms: _558  and  _559
REMARK  216  A    between atoms: _558  and  _561
REMARK  217  A    between atoms: _561  and  _562
REMARK  218  A    between atoms: _562  and  _563
REMARK  219  A    between atoms: _565  and  _567
REMARK  220  A    between atoms: _567  and  _568
REMARK  221  A    between atoms: _567  and  _570
REMARK  222  A    between atoms: _570  and  _571
REMARK  223  A    between atoms: _573  and  _575
REMARK  224  A    between atoms: _575  and  _576
REMARK  225  A    between atoms: _575  and  _578
REMARK  226  A    between atoms: _578  and  _579
REMARK  227  A    between atoms: _581  and  _583
REMARK  228  A    between atoms: _583  and  _584
REMARK  229  A    between atoms: _583  and  _586
REMARK  230  A    between atoms: _586  and  _587
REMARK  231  A    between atoms: _592  and  _594
REMARK  232  A    between atoms: _594  and  _595
REMARK  233  A    between atoms: _594  and  _597
REMARK  234  A    between atoms: _597  and  _598
REMARK  235  A    between atoms: _603  and  _605
REMARK  236  A    between atoms: _605  and  _606
REMARK  237  A    between atoms: _605  and  _608
REMARK  238  A    between atoms: _608  and  _609
REMARK  239  A    between atoms: _612  and  _614
REMARK  240  A    between atoms: _614  and  _615
REMARK  241  A    between atoms: _618  and  _620
REMARK  242  A    between atoms: _620  and  _621
REMARK  243  A    between atoms: _620  and  _623
REMARK  244  A    between atoms: _623  and  _624
REMARK  245  A    between atoms: _629  and  _631
REMARK  246  A    between atoms: _631  and  _632
REMARK  247  A    between atoms: _631  and  _634
REMARK  248  A    between atoms: _634  and  _635
REMARK  249  A    between atoms: _640  and  _641
REMARK  250  A    between atoms: _643  and  _645
REMARK  251  A    between atoms: _645  and  _646
REMARK  252  A    between atoms: _645  and  _648
REMARK  253  A    between atoms: _648  and  _649
REMARK  254  A    between atoms: _654  and  _655
REMARK  255  A    between atoms: _657  and  _659
REMARK  256  A    between atoms: _659  and  _660
REMARK  257  A    between atoms: _659  and  _662
REMARK  258  A    between atoms: _665  and  _667
REMARK  259  A    between atoms: _667  and  _668
REMARK  260  A    between atoms: _667  and  _670
REMARK  261  A    between atoms: _670  and  _671
REMARK  262  A    between atoms: _676  and  _678
REMARK  263  A    between atoms: _678  and  _679
REMARK  264  A    between atoms: _682  and  _684
REMARK  265  A    between atoms: _684  and  _685
REMARK  266  A    between atoms: _684  and  _687
REMARK  267  A    between atoms: _687  and  _688
REMARK  268  A    between atoms: _688  and  _689
REMARK  269  A    between atoms: _689  and  _690
REMARK  270  A    between atoms: _699  and  _701
REMARK  271  A    between atoms: _701  and  _702
REMARK  272  A    between atoms: _701  and  _704
REMARK  273  A    between atoms: _704  and  _705
REMARK  274  A    between atoms: _708  and  _710
REMARK  275  A    between atoms: _710  and  _711
REMARK  276  A    between atoms: _710  and  _713
REMARK  277  A    between atoms: _713  and  _714
REMARK  278  A    between atoms: _717  and  _719
REMARK  279  A    between atoms: _719  and  _720
REMARK  280  A    between atoms: _719  and  _722
REMARK  281  A    between atoms: _722  and  _723
REMARK                            x       y       z     vdW  Elec       q    Type
REMARK                         _______ _______ _______ _____ _____    ______ ____
ROOT
ATOM      1  O   HOH     1       5.746   7.904   7.738  0.00  0.00    +0.000 OA
ENDROOT
TORSDOF 0
REMARK  Name = ../refined-set-2016/1qka/1qka_pocket.pdb
REMARK  281 active torsions:
REMARK  status: ('A' for Active; 'I' for Inactive)
REMARK    1  A    between atoms: _1  and  _3
REMARK    2  A    between atoms: _3  and  _4
REMARK    3  A    between atoms: _3  and  _6
REMARK    4  A    between atoms: _6  and  _7
REMARK    5  A    between atoms: _12  and  _14
REMARK    6  A    between atoms: _14  and  _15
REMARK    7  A    between atoms: _17  and  _19
REMARK    8  A    between atoms: _19  and  _20
REMARK    9  A    between atoms: _19  and  _22
REMARK   10  A    between atoms: _22  and  _23
REMARK   11  A    between atoms: _25  and  _27
REMARK   12  A    between atoms: _27  and  _28
REMARK   13  A    between atoms: _27  and  _30
REMARK   14  A    between atoms: _30  and  _31
REMARK   15  A    between atoms: _31  and  _32
REMARK   16  A    between atoms: _37  and  _39
REMARK   17  A    between atoms: _39  and  _40
REMARK   18  A    between atoms: _39  and  _42
REMARK   19  A    between atoms: _42  and  _43
REMARK   20  A    between atoms: _46  and  _48
REMARK   21  A    between atoms: _48  and  _49
REMARK   22  A    between atoms: _48  and  _51
REMARK   23  A    between atoms: _51  and  _52
REMARK   24  A    between atoms: _52  and  _53
REMARK   25  A    between atoms: _56  and  _58
REMARK   26  A    between atoms: _58  and  _59
REMARK   27  A    between atoms: _61  and  _63
REMARK   28  A    between atoms: _63  and  _64
REMARK   29  A    between atoms: _63  and  _66
REMARK   30  A    between atoms: _70  and  _71
REMARK   31  A    between atoms: _76  and  _78
REMARK   32  A    between atoms: _78  and  _79
REMARK   33  A    between atoms: _78  and  _81
REMARK   34  A    between atoms: _81  and  _82
REMARK   35  A    between atoms: _82  and  _83
REMARK   36  A    between atoms: _86  and  _88
REMARK   37  A    between atoms: _88  and  _89
REMARK   38  A    between atoms: _88  and  _91
REMARK   39  A    between atoms: _91  and  _92
REMARK   40  A    between atoms: _94  and  _96
REMARK   41  A    between atoms: _96  and  _97
REMARK   42  A    between atoms: _96  and  _99
REMARK   43  A    between atoms: _99  and  _100
REMARK   44  A    between atoms: _105  and  _107
REMARK   45  A    between atoms: _107  and  _108
REMARK   46  A    between atoms: _107  and  _110
REMARK   47  A    between atoms: _110  and  _111
REMARK   48  A    between atoms: _111  and  _112
REMARK   49  A    between atoms: _112  and  _113
REMARK   50  A    between atoms: _123  and  _124
REMARK   51  A    between atoms: _129  and  _131
REMARK   52  A    between atoms: _131  and  _132
REMARK   53  A    between atoms: _131  and  _134
REMARK   54  A    between atoms: _134  and  _135
REMARK   55  A    between atoms: _140  and  _141
REMARK   56  A    between atoms: _143  and  _145
REMARK   57  A    between atoms: _145  and  _146
REMARK   58  A    between atoms: _145  and  _148
REMARK   59  A    between atoms: _148  and  _149
REMARK   60  A    between atoms: _154  and  _155
REMARK   61  A    between atoms: _157  and  _159
REMARK   62  A    between atoms: _159  and  _160
REMARK   63  A    between atoms: _159  and  _162
REMARK   64  A    between atoms: _162  and  _163
REMARK   65  A    between atoms: _168  and  _169
REMARK   66  A    between atoms: _171  and  _173
REMARK   67  A    between atoms: _173  and  _174
REMARK   68  A    between atoms: _173  and  _176
REMARK   69  A    between atoms: _179  and  _181
REMARK   70  A    between atoms: _181  and  _182
REMARK   71  A    between atoms: _181  and  _184
REMARK   72  A    between atoms: _184  and  _185
REMARK   73  A    between atoms: _191  and  _192
REMARK   74  A    between atoms: _197  and  _199
REMARK   75  A    between atoms: _199  and  _200
REMARK   76  A    between atoms: _199  and  _202
REMARK   77  A    between atoms: _202  and  _203
REMARK   78  A    between atoms: _205  and  _207
REMARK   79  A    between atoms: _207  and  _208
REMARK   80  A    between atoms: _207  and  _210
REMARK   81  A    between atoms: _210  and  _211
REMARK   82  A    between atoms: _211  and  _212
REMARK   83  A    between atoms: _215  and  _217
REMARK   84  A    between atoms: _217  and  _218
REMARK   85  A    between atoms: _217  and  _220
REMARK   86  A    between atoms: _220  and  _221
REMARK   87  A    between atoms: _226  and  _227
REMARK   88  A    between atoms: _229  and  _231
REMARK   89  A    between atoms: _231  and  _232
REMARK   90  A    between atoms: _231  and  _234
REMARK   91  A    between atoms: _234  and  _235
REMARK   92  A    between atoms: _240  and  _242
REMARK   93  A    between atoms: _242  and  _243
REMARK   94  A    between atoms: _242  and  _245
REMARK   95  A    between atoms: _245  and  _246
REMARK   96  A    between atoms: _251  and  _253
REMARK   97  A    between atoms: _253  and  _254
REMARK   98  A    between atoms: _253  and  _256
REMARK   99  A    between atoms: _256  and  _257
REMARK  100  A    between atoms: _257  and  _258
REMARK  101  A    between atoms: _260  and  _262
REMARK  102  A    between atoms: _262  and  _263
REMARK  103  A    between atoms: _262  and  _265
REMARK  104  A    between atoms: _265  and  _266
REMARK  105  A    between atoms: _271  and  _272
REMARK  106  A    between atoms: _274  and  _276
REMARK  107  A    between atoms: _276  and  _277
REMARK  108  A    between atoms: _276  and  _279
REMARK  109  A    between atoms: _279  and  _280
REMARK  110  A    between atoms: _283  and  _285
REMARK  111  A    between atoms: _285  and  _286
REMARK  112  A    between atoms: _285  and  _288
REMARK  113  A    between atoms: _288  and  _289
REMARK  114  A    between atoms: _289  and  _497
REMARK  115  A    between atoms: _290  and  _292
REMARK  116  A    between atoms: _292  and  _293
REMARK  117  A    between atoms: _292  and  _295
REMARK  118  A    between atoms: _295  and  _296
REMARK  119  A    between atoms: _299  and  _301
REMARK  120  A    between atoms: _301  and  _302
REMARK  121  A    between atoms: _301  and  _304
REMARK  122  A    between atoms: _304  and  _305
REMARK  123  A    between atoms: _310  and  _311
REMARK  124  A    between atoms: _313  and  _315
REMARK  125  A    between atoms: _315  and  _316
REMARK  126  A    between atoms: _315  and  _318
REMARK  127  A    between atoms: _318  and  _319
REMARK  128  A    between atoms: _324  and  _325
REMARK  129  A    between atoms: _327  and  _329
REMARK  130  A    between atoms: _329  and  _330
REMARK  131  A    between atoms: _329  and  _332
REMARK  132  A    between atoms: _332  and  _333
REMARK  133  A    between atoms: _333  and  _334
REMARK  134  A    between atoms: _337  and  _339
REMARK  135  A    between atoms: _339  and  _340
REMARK  136  A    between atoms: _339  and  _342
REMARK  137  A    between atoms: _342  and  _343
REMARK  138  A    between atoms: _348  and  _349
REMARK  139  A    between atoms: _351  and  _353
REMARK  140  A    between atoms: _353  and  _354
REMARK  141  A    between atoms: _353  and  _356
REMARK  142  A    between atoms: _356  and  _357
REMARK  143  A    between atoms: _362  and  _364
REMARK  144  A    between atoms: _364  and  _365
REMARK  145  A    between atoms: _364  and  _367
REMARK  146  A    between atoms: _367  and  _368
REMARK  147  A    between atoms: _371  and  _373
REMARK  148  A    between atoms: _373  and  _374
REMARK  149  A    between atoms: _373  and  _376
REMARK  150  A    between atoms: _376  and  _377
REMARK  151  A    between atoms: _382  and  _384
REMARK  152  A    between atoms: _384  and  _385
REMARK  153  A    between atoms: _384  and  _387
REMARK  154  A    between atoms: _387  and  _388
REMARK  155  A    between atoms: _398  and  _400
REMARK  156  A    between atoms: _400  and  _401
REMARK  157  A    between atoms: _400  and  _403
REMARK  158  A    between atoms: _403  and  _404
REMARK  159  A    between atoms: _410  and  _412
REMARK  160  A    between atoms: _412  and  _413
REMARK  161  A    between atoms: _412  and  _415
REMARK  162  A    between atoms: _415  and  _416
REMARK  163  A    between atoms: _419  and  _421
REMARK  164  A    between atoms: _421  and  _422
REMARK  165  A    between atoms: _421  and  _424
REMARK  166  A    between atoms: _424  and  _425
REMARK  167  A    between atoms: _425  and  _426
REMARK  168  A    between atoms: _426  and  _427
REMARK  169  A    between atoms: _436  and  _438
REMARK  170  A    between atoms: _438  and  _439
REMARK  171  A    between atoms: _438  and  _441
REMARK  172  A    between atoms: _441  and  _442
REMARK  173  A    between atoms: _447  and  _449
REMARK  174  A    between atoms: _449  and  _450
REMARK  175  A    between atoms: _449  and  _452
REMARK  176  A    between atoms: _452  and  _453
REMARK  177  A    between atoms: _453  and  _454
REMARK  178  A    between atoms: _454  and  _455
REMARK  179  A    between atoms: _464  and  _466
REMARK  180  A    between atoms: _466  and  _467
REMARK  181  A    between atoms: _470  and  _472
REMARK  182  A    between atoms: _472  and  _473
REMARK  183  A    between atoms: _475  and  _477
REMARK  184  A    between atoms: _477  and  _478
REMARK  185  A    between atoms: _477  and  _480
REMARK  186  A    between atoms: _480  and  _481
REMARK  187  A    between atoms: _491  and  _493
REMARK  188  A    between atoms: _493  and  _494
REMARK  189  A    between atoms: _493  and  _496
REMARK  190  A    between atoms: _496  and  _497
REMARK  191  A    between atoms: _498  and  _500
REMARK  192  A    between atoms: _500  and  _501
REMARK  193  A    between atoms: _504  and  _506
REMARK  194  A    between atoms: _506  and  _507
REMARK  195  A    between atoms: _506  and  _509
REMARK  196  A    between atoms: _509  and  _510
REMARK  197  A    between atoms: _513  and  _515
REMARK  198  A    between atoms: _515  and  _516
REMARK  199  A    between atoms: _515  and  _518
REMARK  200  A    between atoms: _518  and  _519
REMARK  201  A    between atoms: _524  and  _525
REMARK  202  A    between atoms: _527  and  _529
REMARK  203  A    between atoms: _529  and  _530
REMARK  204  A    between atoms: _529  and  _532
REMARK  205  A    between atoms: _532  and  _533
REMARK  206  A    between atoms: _535  and  _537
REMARK  207  A    between atoms: _537  and  _538
REMARK  208  A    between atoms: _537  and  _540
REMARK  209  A    between atoms: _540  and  _541
REMARK  210  A    between atoms: _547  and  _549
REMARK  211  A    between atoms: _549  and  _550
REMARK  212  A    between atoms: _549  and  _552
REMARK  213  A    between atoms: _552  and  _553
REMARK  214  A    between atoms: _556  and  _558
REMARK  215  A    between atoms: _558  and  _559
REMARK  216  A    between atoms: _558  and  _561
REMARK  217  A    between atoms: _561  and  _562
REMARK  218  A    between atoms: _562  and  _563
REMARK  219  A    between atoms: _565  and  _567
REMARK  220  A    between atoms: _567  and  _568
REMARK  221  A    between atoms: _567  and  _570
REMARK  222  A    between atoms: _570  and  _571
REMARK  223  A    between atoms: _573  and  _575
REMARK  224  A    between atoms: _575  and  _576
REMARK  225  A    between atoms: _575  and  _578
REMARK  226  A    between atoms: _578  and  _579
REMARK  227  A    between atoms: _581  and  _583
REMARK  228  A    between atoms: _583  and  _584
REMARK  229  A    between atoms: _583  and  _586
REMARK  230  A    between atoms: _586  and  _587
REMARK  231  A    between atoms: _592  and  _594
REMARK  232  A    between atoms: _594  and  _595
REMARK  233  A    between atoms: _594  and  _597
REMARK  234  A    between atoms: _597  and  _598
REMARK  235  A    between atoms: _603  and  _605
REMARK  236  A    between atoms: _605  and  _606
REMARK  237  A    between atoms: _605  and  _608
REMARK  238  A    between atoms: _608  and  _609
REMARK  239  A    between atoms: _612  and  _614
REMARK  240  A    between atoms: _614  and  _615
REMARK  241  A    between atoms: _618  and  _620
REMARK  242  A    between atoms: _620  and  _621
REMARK  243  A    between atoms: _620  and  _623
REMARK  244  A    between atoms: _623  and  _624
REMARK  245  A    between atoms: _629  and  _631
REMARK  246  A    between atoms: _631  and  _632
REMARK  247  A    between atoms: _631  and  _634
REMARK  248  A    between atoms: _634  and  _635
REMARK  249  A    between atoms: _640  and  _641
REMARK  250  A    between atoms: _643  and  _645
REMARK  251  A    between atoms: _645  and  _646
REMARK  252  A    between atoms: _645  and  _648
REMARK  253  A    between atoms: _648  and  _649
REMARK  254  A    between atoms: _654  and  _655
REMARK  255  A    between atoms: _657  and  _659
REMARK  256  A    between atoms: _659  and  _660
REMARK  257  A    between atoms: _659  and  _662
REMARK  258  A    between atoms: _665  and  _667
REMARK  259  A    between atoms: _667  and  _668
REMARK  260  A    between atoms: _667  and  _670
REMARK  261  A    between atoms: _670  and  _671
REMARK  262  A    between atoms: _676  and  _678
REMARK  263  A    between atoms: _678  and  _679
REMARK  264  A    between atoms: _682  and  _684
REMARK  265  A    between atoms: _684  and  _685
REMARK  266  A    between atoms: _684  and  _687
REMARK  267  A    between atoms: _687  and  _688
REMARK  268  A    between atoms: _688  and  _689
REMARK  269  A    between atoms: _689  and  _690
REMARK  270  A    between atoms: _699  and  _701
REMARK  271  A    between atoms: _701  and  _702
REMARK  272  A    between atoms: _701  and  _704
REMARK  273  A    between atoms: _704  and  _705
REMARK  274  A    between atoms: _708  and  _710
REMARK  275  A    between atoms: _710  and  _711
REMARK  276  A    between atoms: _710  and  _713
REMARK  277  A    between atoms: _713  and  _714
REMARK  278  A    between atoms: _717  and  _719
REMARK  279  A    between atoms: _719  and  _720
REMARK  280  A    between atoms: _719  and  _722
REMARK  281  A    between atoms: _722  and  _723
REMARK                            x       y       z     vdW  Elec       q    Type
REMARK                         _______ _______ _______ _____ _____    ______ ____
ROOT
ATOM      1  O   HOH     1       3.505  12.943  12.112  0.00  0.00    +0.000 OA
ENDROOT
TORSDOF 0
REMARK  Name = ../refined-set-2016/1qka/1qka_pocket.pdb
REMARK  281 active torsions:
REMARK  status: ('A' for Active; 'I' for Inactive)
REMARK    1  A    between atoms: _1  and  _3
REMARK    2  A    between atoms: _3  and  _4
REMARK    3  A    between atoms: _3  and  _6
REMARK    4  A    between atoms: _6  and  _7
REMARK    5  A    between atoms: _12  and  _14
REMARK    6  A    between atoms: _14  and  _15
REMARK    7  A    between atoms: _17  and  _19
REMARK    8  A    between atoms: _19  and  _20
REMARK    9  A    between atoms: _19  and  _22
REMARK   10  A    between atoms: _22  and  _23
REMARK   11  A    between atoms: _25  and  _27
REMARK   12  A    between atoms: _27  and  _28
REMARK   13  A    between atoms: _27  and  _30
REMARK   14  A    between atoms: _30  and  _31
REMARK   15  A    between atoms: _31  and  _32
REMARK   16  A    between atoms: _37  and  _39
REMARK   17  A    between atoms: _39  and  _40
REMARK   18  A    between atoms: _39  and  _42
REMARK   19  A    between atoms: _42  and  _43
REMARK   20  A    between atoms: _46  and  _48
REMARK   21  A    between atoms: _48  and  _49
REMARK   22  A    between atoms: _48  and  _51
REMARK   23  A    between atoms: _51  and  _52
REMARK   24  A    between atoms: _52  and  _53
REMARK   25  A    between atoms: _56  and  _58
REMARK   26  A    between atoms: _58  and  _59
REMARK   27  A    between atoms: _61  and  _63
REMARK   28  A    between atoms: _63  and  _64
REMARK   29  A    between atoms: _63  and  _66
REMARK   30  A    between atoms: _70  and  _71
REMARK   31  A    between atoms: _76  and  _78
REMARK   32  A    between atoms: _78  and  _79
REMARK   33  A    between atoms: _78  and  _81
REMARK   34  A    between atoms: _81  and  _82
REMARK   35  A    between atoms: _82  and  _83
REMARK   36  A    between atoms: _86  and  _88
REMARK   37  A    between atoms: _88  and  _89
REMARK   38  A    between atoms: _88  and  _91
REMARK   39  A    between atoms: _91  and  _92
REMARK   40  A    between atoms: _94  and  _96
REMARK   41  A    between atoms: _96  and  _97
REMARK   42  A    between atoms: _96  and  _99
REMARK   43  A    between atoms: _99  and  _100
REMARK   44  A    between atoms: _105  and  _107
REMARK   45  A    between atoms: _107  and  _108
REMARK   46  A    between atoms: _107  and  _110
REMARK   47  A    between atoms: _110  and  _111
REMARK   48  A    between atoms: _111  and  _112
REMARK   49  A    between atoms: _112  and  _113
REMARK   50  A    between atoms: _123  and  _124
REMARK   51  A    between atoms: _129  and  _131
REMARK   52  A    between atoms: _131  and  _132
REMARK   53  A    between atoms: _131  and  _134
REMARK   54  A    between atoms: _134  and  _135
REMARK   55  A    between atoms: _140  and  _141
REMARK   56  A    between atoms: _143  and  _145
REMARK   57  A    between atoms: _145  and  _146
REMARK   58  A    between atoms: _145  and  _148
REMARK   59  A    between atoms: _148  and  _149
REMARK   60  A    between atoms: _154  and  _155
REMARK   61  A    between atoms: _157  and  _159
REMARK   62  A    between atoms: _159  and  _160
REMARK   63  A    between atoms: _159  and  _162
REMARK   64  A    between atoms: _162  and  _163
REMARK   65  A    between atoms: _168  and  _169
REMARK   66  A    between atoms: _171  and  _173
REMARK   67  A    between atoms: _173  and  _174
REMARK   68  A    between atoms: _173  and  _176
REMARK   69  A    between atoms: _179  and  _181
REMARK   70  A    between atoms: _181  and  _182
REMARK   71  A    between atoms: _181  and  _184
REMARK   72  A    between atoms: _184  and  _185
REMARK   73  A    between atoms: _191  and  _192
REMARK   74  A    between atoms: _197  and  _199
REMARK   75  A    between atoms: _199  and  _200
REMARK   76  A    between atoms: _199  and  _202
REMARK   77  A    between atoms: _202  and  _203
REMARK   78  A    between atoms: _205  and  _207
REMARK   79  A    between atoms: _207  and  _208
REMARK   80  A    between atoms: _207  and  _210
REMARK   81  A    between atoms: _210  and  _211
REMARK   82  A    between atoms: _211  and  _212
REMARK   83  A    between atoms: _215  and  _217
REMARK   84  A    between atoms: _217  and  _218
REMARK   85  A    between atoms: _217  and  _220
REMARK   86  A    between atoms: _220  and  _221
REMARK   87  A    between atoms: _226  and  _227
REMARK   88  A    between atoms: _229  and  _231
REMARK   89  A    between atoms: _231  and  _232
REMARK   90  A    between atoms: _231  and  _234
REMARK   91  A    between atoms: _234  and  _235
REMARK   92  A    between atoms: _240  and  _242
REMARK   93  A    between atoms: _242  and  _243
REMARK   94  A    between atoms: _242  and  _245
REMARK   95  A    between atoms: _245  and  _246
REMARK   96  A    between atoms: _251  and  _253
REMARK   97  A    between atoms: _253  and  _254
REMARK   98  A    between atoms: _253  and  _256
REMARK   99  A    between atoms: _256  and  _257
REMARK  100  A    between atoms: _257  and  _258
REMARK  101  A    between atoms: _260  and  _262
REMARK  102  A    between atoms: _262  and  _263
REMARK  103  A    between atoms: _262  and  _265
REMARK  104  A    between atoms: _265  and  _266
REMARK  105  A    between atoms: _271  and  _272
REMARK  106  A    between atoms: _274  and  _276
REMARK  107  A    between atoms: _276  and  _277
REMARK  108  A    between atoms: _276  and  _279
REMARK  109  A    between atoms: _279  and  _280
REMARK  110  A    between atoms: _283  and  _285
REMARK  111  A    between atoms: _285  and  _286
REMARK  112  A    between atoms: _285  and  _288
REMARK  113  A    between atoms: _288  and  _289
REMARK  114  A    between atoms: _289  and  _497
REMARK  115  A    between atoms: _290  and  _292
REMARK  116  A    between atoms: _292  and  _293
REMARK  117  A    between atoms: _292  and  _295
REMARK  118  A    between atoms: _295  and  _296
REMARK  119  A    between atoms: _299  and  _301
REMARK  120  A    between atoms: _301  and  _302
REMARK  121  A    between atoms: _301  and  _304
REMARK  122  A    between atoms: _304  and  _305
REMARK  123  A    between atoms: _310  and  _311
REMARK  124  A    between atoms: _313  and  _315
REMARK  125  A    between atoms: _315  and  _316
REMARK  126  A    between atoms: _315  and  _318
REMARK  127  A    between atoms: _318  and  _319
REMARK  128  A    between atoms: _324  and  _325
REMARK  129  A    between atoms: _327  and  _329
REMARK  130  A    between atoms: _329  and  _330
REMARK  131  A    between atoms: _329  and  _332
REMARK  132  A    between atoms: _332  and  _333
REMARK  133  A    between atoms: _333  and  _334
REMARK  134  A    between atoms: _337  and  _339
REMARK  135  A    between atoms: _339  and  _340
REMARK  136  A    between atoms: _339  and  _342
REMARK  137  A    between atoms: _342  and  _343
REMARK  138  A    between atoms: _348  and  _349
REMARK  139  A    between atoms: _351  and  _353
REMARK  140  A    between atoms: _353  and  _354
REMARK  141  A    between atoms: _353  and  _356
REMARK  142  A    between atoms: _356  and  _357
REMARK  143  A    between atoms: _362  and  _364
REMARK  144  A    between atoms: _364  and  _365
REMARK  145  A    between atoms: _364  and  _367
REMARK  146  A    between atoms: _367  and  _368
REMARK  147  A    between atoms: _371  and  _373
REMARK  148  A    between atoms: _373  and  _374
REMARK  149  A    between atoms: _373  and  _376
REMARK  150  A    between atoms: _376  and  _377
REMARK  151  A    between atoms: _382  and  _384
REMARK  152  A    between atoms: _384  and  _385
REMARK  153  A    between atoms: _384  and  _387
REMARK  154  A    between atoms: _387  and  _388
REMARK  155  A    between atoms: _398  and  _400
REMARK  156  A    between atoms: _400  and  _401
REMARK  157  A    between atoms: _400  and  _403
REMARK  158  A    between atoms: _403  and  _404
REMARK  159  A    between atoms: _410  and  _412
REMARK  160  A    between atoms: _412  and  _413
REMARK  161  A    between atoms: _412  and  _415
REMARK  162  A    between atoms: _415  and  _416
REMARK  163  A    between atoms: _419  and  _421
REMARK  164  A    between atoms: _421  and  _422
REMARK  165  A    between atoms: _421  and  _424
REMARK  166  A    between atoms: _424  and  _425
REMARK  167  A    between atoms: _425  and  _426
REMARK  168  A    between atoms: _426  and  _427
REMARK  169  A    between atoms: _436  and  _438
REMARK  170  A    between atoms: _438  and  _439
REMARK  171  A    between atoms: _438  and  _441
REMARK  172  A    between atoms: _441  and  _442
REMARK  173  A    between atoms: _447  and  _449
REMARK  174  A    between atoms: _449  and  _450
REMARK  175  A    between atoms: _449  and  _452
REMARK  176  A    between atoms: _452  and  _453
REMARK  177  A    between atoms: _453  and  _454
REMARK  178  A    between atoms: _454  and  _455
REMARK  179  A    between atoms: _464  and  _466
REMARK  180  A    between atoms: _466  and  _467
REMARK  181  A    between atoms: _470  and  _472
REMARK  182  A    between atoms: _472  and  _473
REMARK  183  A    between atoms: _475  and  _477
REMARK  184  A    between atoms: _477  and  _478
REMARK  185  A    between atoms: _477  and  _480
REMARK  186  A    between atoms: _480  and  _481
REMARK  187  A    between atoms: _491  and  _493
REMARK  188  A    between atoms: _493  and  _494
REMARK  189  A    between atoms: _493  and  _496
REMARK  190  A    between atoms: _496  and  _497
REMARK  191  A    between atoms: _498  and  _500
REMARK  192  A    between atoms: _500  and  _501
REMARK  193  A    between atoms: _504  and  _506
REMARK  194  A    between atoms: _506  and  _507
REMARK  195  A    between atoms: _506  and  _509
REMARK  196  A    between atoms: _509  and  _510
REMARK  197  A    between atoms: _513  and  _515
REMARK  198  A    between atoms: _515  and  _516
REMARK  199  A    between atoms: _515  and  _518
REMARK  200  A    between atoms: _518  and  _519
REMARK  201  A    between atoms: _524  and  _525
REMARK  202  A    between atoms: _527  and  _529
REMARK  203  A    between atoms: _529  and  _530
REMARK  204  A    between atoms: _529  and  _532
REMARK  205  A    between atoms: _532  and  _533
REMARK  206  A    between atoms: _535  and  _537
REMARK  207  A    between atoms: _537  and  _538
REMARK  208  A    between atoms: _537  and  _540
REMARK  209  A    between atoms: _540  and  _541
REMARK  210  A    between atoms: _547  and  _549
REMARK  211  A    between atoms: _549  and  _550
REMARK  212  A    between atoms: _549  and  _552
REMARK  213  A    between atoms: _552  and  _553
REMARK  214  A    between atoms: _556  and  _558
REMARK  215  A    between atoms: _558  and  _559
REMARK  216  A    between atoms: _558  and  _561
REMARK  217  A    between atoms: _561  and  _562
REMARK  218  A    between atoms: _562  and  _563
REMARK  219  A    between atoms: _565  and  _567
REMARK  220  A    between atoms: _567  and  _568
REMARK  221  A    between atoms: _567  and  _570
REMARK  222  A    between atoms: _570  and  _571
REMARK  223  A    between atoms: _573  and  _575
REMARK  224  A    between atoms: _575  and  _576
REMARK  225  A    between atoms: _575  and  _578
REMARK  226  A    between atoms: _578  and  _579
REMARK  227  A    between atoms: _581  and  _583
REMARK  228  A    between atoms: _583  and  _584
REMARK  229  A    between atoms: _583  and  _586
REMARK  230  A    between atoms: _586  and  _587
REMARK  231  A    between atoms: _592  and  _594
REMARK  232  A    between atoms: _594  and  _595
REMARK  233  A    between atoms: _594  and  _597
REMARK  234  A    between atoms: _597  and  _598
REMARK  235  A    between atoms: _603  and  _605
REMARK  236  A    between atoms: _605  and  _606
REMARK  237  A    between atoms: _605  and  _608
REMARK  238  A    between atoms: _608  and  _609
REMARK  239  A    between atoms: _612  and  _614
REMARK  240  A    between atoms: _614  and  _615
REMARK  241  A    between atoms: _618  and  _620
REMARK  242  A    between atoms: _620  and  _621
REMARK  243  A    between atoms: _620  and  _623
REMARK  244  A    between atoms: _623  and  _624
REMARK  245  A    between atoms: _629  and  _631
REMARK  246  A    between atoms: _631  and  _632
REMARK  247  A    between atoms: _631  and  _634
REMARK  248  A    between atoms: _634  and  _635
REMARK  249  A    between atoms: _640  and  _641
REMARK  250  A    between atoms: _643  and  _645
REMARK  251  A    between atoms: _645  and  _646
REMARK  252  A    between atoms: _645  and  _648
REMARK  253  A    between atoms: _648  and  _649
REMARK  254  A    between atoms: _654  and  _655
REMARK  255  A    between atoms: _657  and  _659
REMARK  256  A    between atoms: _659  and  _660
REMARK  257  A    between atoms: _659  and  _662
REMARK  258  A    between atoms: _665  and  _667
REMARK  259  A    between atoms: _667  and  _668
REMARK  260  A    between atoms: _667  and  _670
REMARK  261  A    between atoms: _670  and  _671
REMARK  262  A    between atoms: _676  and  _678
REMARK  263  A    between atoms: _678  and  _679
REMARK  264  A    between atoms: _682  and  _684
REMARK  265  A    between atoms: _684  and  _685
REMARK  266  A    between atoms: _684  and  _687
REMARK  267  A    between atoms: _687  and  _688
REMARK  268  A    between atoms: _688  and  _689
REMARK  269  A    between atoms: _689  and  _690
REMARK  270  A    between atoms: _699  and  _701
REMARK  271  A    between atoms: _701  and  _702
REMARK  272  A    between atoms: _701  and  _704
REMARK  273  A    between atoms: _704  and  _705
REMARK  274  A    between atoms: _708  and  _710
REMARK  275  A    between atoms: _710  and  _711
REMARK  276  A    between atoms: _710  and  _713
REMARK  277  A    between atoms: _713  and  _714
REMARK  278  A    between atoms: _717  and  _719
REMARK  279  A    between atoms: _719  and  _720
REMARK  280  A    between atoms: _719  and  _722
REMARK  281  A    between atoms: _722  and  _723
REMARK                            x       y       z     vdW  Elec       q    Type
REMARK                         _______ _______ _______ _____ _____    ______ ____
ROOT
ATOM      1  O   HOH     1      -1.070  15.209   8.480  0.00  0.00    +0.000 OA
ENDROOT
TORSDOF 0
REMARK  Name = ../refined-set-2016/1qka/1qka_pocket.pdb
REMARK  281 active torsions:
REMARK  status: ('A' for Active; 'I' for Inactive)
REMARK    1  A    between atoms: _1  and  _3
REMARK    2  A    between atoms: _3  and  _4
REMARK    3  A    between atoms: _3  and  _6
REMARK    4  A    between atoms: _6  and  _7
REMARK    5  A    between atoms: _12  and  _14
REMARK    6  A    between atoms: _14  and  _15
REMARK    7  A    between atoms: _17  and  _19
REMARK    8  A    between atoms: _19  and  _20
REMARK    9  A    between atoms: _19  and  _22
REMARK   10  A    between atoms: _22  and  _23
REMARK   11  A    between atoms: _25  and  _27
REMARK   12  A    between atoms: _27  and  _28
REMARK   13  A    between atoms: _27  and  _30
REMARK   14  A    between atoms: _30  and  _31
REMARK   15  A    between atoms: _31  and  _32
REMARK   16  A    between atoms: _37  and  _39
REMARK   17  A    between atoms: _39  and  _40
REMARK   18  A    between atoms: _39  and  _42
REMARK   19  A    between atoms: _42  and  _43
REMARK   20  A    between atoms: _46  and  _48
REMARK   21  A    between atoms: _48  and  _49
REMARK   22  A    between atoms: _48  and  _51
REMARK   23  A    between atoms: _51  and  _52
REMARK   24  A    between atoms: _52  and  _53
REMARK   25  A    between atoms: _56  and  _58
REMARK   26  A    between atoms: _58  and  _59
REMARK   27  A    between atoms: _61  and  _63
REMARK   28  A    between atoms: _63  and  _64
REMARK   29  A    between atoms: _63  and  _66
REMARK   30  A    between atoms: _70  and  _71
REMARK   31  A    between atoms: _76  and  _78
REMARK   32  A    between atoms: _78  and  _79
REMARK   33  A    between atoms: _78  and  _81
REMARK   34  A    between atoms: _81  and  _82
REMARK   35  A    between atoms: _82  and  _83
REMARK   36  A    between atoms: _86  and  _88
REMARK   37  A    between atoms: _88  and  _89
REMARK   38  A    between atoms: _88  and  _91
REMARK   39  A    between atoms: _91  and  _92
REMARK   40  A    between atoms: _94  and  _96
REMARK   41  A    between atoms: _96  and  _97
REMARK   42  A    between atoms: _96  and  _99
REMARK   43  A    between atoms: _99  and  _100
REMARK   44  A    between atoms: _105  and  _107
REMARK   45  A    between atoms: _107  and  _108
REMARK   46  A    between atoms: _107  and  _110
REMARK   47  A    between atoms: _110  and  _111
REMARK   48  A    between atoms: _111  and  _112
REMARK   49  A    between atoms: _112  and  _113
REMARK   50  A    between atoms: _123  and  _124
REMARK   51  A    between atoms: _129  and  _131
REMARK   52  A    between atoms: _131  and  _132
REMARK   53  A    between atoms: _131  and  _134
REMARK   54  A    between atoms: _134  and  _135
REMARK   55  A    between atoms: _140  and  _141
REMARK   56  A    between atoms: _143  and  _145
REMARK   57  A    between atoms: _145  and  _146
REMARK   58  A    between atoms: _145  and  _148
REMARK   59  A    between atoms: _148  and  _149
REMARK   60  A    between atoms: _154  and  _155
REMARK   61  A    between atoms: _157  and  _159
REMARK   62  A    between atoms: _159  and  _160
REMARK   63  A    between atoms: _159  and  _162
REMARK   64  A    between atoms: _162  and  _163
REMARK   65  A    between atoms: _168  and  _169
REMARK   66  A    between atoms: _171  and  _173
REMARK   67  A    between atoms: _173  and  _174
REMARK   68  A    between atoms: _173  and  _176
REMARK   69  A    between atoms: _179  and  _181
REMARK   70  A    between atoms: _181  and  _182
REMARK   71  A    between atoms: _181  and  _184
REMARK   72  A    between atoms: _184  and  _185
REMARK   73  A    between atoms: _191  and  _192
REMARK   74  A    between atoms: _197  and  _199
REMARK   75  A    between atoms: _199  and  _200
REMARK   76  A    between atoms: _199  and  _202
REMARK   77  A    between atoms: _202  and  _203
REMARK   78  A    between atoms: _205  and  _207
REMARK   79  A    between atoms: _207  and  _208
REMARK   80  A    between atoms: _207  and  _210
REMARK   81  A    between atoms: _210  and  _211
REMARK   82  A    between atoms: _211  and  _212
REMARK   83  A    between atoms: _215  and  _217
REMARK   84  A    between atoms: _217  and  _218
REMARK   85  A    between atoms: _217  and  _220
REMARK   86  A    between atoms: _220  and  _221
REMARK   87  A    between atoms: _226  and  _227
REMARK   88  A    between atoms: _229  and  _231
REMARK   89  A    between atoms: _231  and  _232
REMARK   90  A    between atoms: _231  and  _234
REMARK   91  A    between atoms: _234  and  _235
REMARK   92  A    between atoms: _240  and  _242
REMARK   93  A    between atoms: _242  and  _243
REMARK   94  A    between atoms: _242  and  _245
REMARK   95  A    between atoms: _245  and  _246
REMARK   96  A    between atoms: _251  and  _253
REMARK   97  A    between atoms: _253  and  _254
REMARK   98  A    between atoms: _253  and  _256
REMARK   99  A    between atoms: _256  and  _257
REMARK  100  A    between atoms: _257  and  _258
REMARK  101  A    between atoms: _260  and  _262
REMARK  102  A    between atoms: _262  and  _263
REMARK  103  A    between atoms: _262  and  _265
REMARK  104  A    between atoms: _265  and  _266
REMARK  105  A    between atoms: _271  and  _272
REMARK  106  A    between atoms: _274  and  _276
REMARK  107  A    between atoms: _276  and  _277
REMARK  108  A    between atoms: _276  and  _279
REMARK  109  A    between atoms: _279  and  _280
REMARK  110  A    between atoms: _283  and  _285
REMARK  111  A    between atoms: _285  and  _286
REMARK  112  A    between atoms: _285  and  _288
REMARK  113  A    between atoms: _288  and  _289
REMARK  114  A    between atoms: _289  and  _497
REMARK  115  A    between atoms: _290  and  _292
REMARK  116  A    between atoms: _292  and  _293
REMARK  117  A    between atoms: _292  and  _295
REMARK  118  A    between atoms: _295  and  _296
REMARK  119  A    between atoms: _299  and  _301
REMARK  120  A    between atoms: _301  and  _302
REMARK  121  A    between atoms: _301  and  _304
REMARK  122  A    between atoms: _304  and  _305
REMARK  123  A    between atoms: _310  and  _311
REMARK  124  A    between atoms: _313  and  _315
REMARK  125  A    between atoms: _315  and  _316
REMARK  126  A    between atoms: _315  and  _318
REMARK  127  A    between atoms: _318  and  _319
REMARK  128  A    between atoms: _324  and  _325
REMARK  129  A    between atoms: _327  and  _329
REMARK  130  A    between atoms: _329  and  _330
REMARK  131  A    between atoms: _329  and  _332
REMARK  132  A    between atoms: _332  and  _333
REMARK  133  A    between atoms: _333  and  _334
REMARK  134  A    between atoms: _337  and  _339
REMARK  135  A    between atoms: _339  and  _340
REMARK  136  A    between atoms: _339  and  _342
REMARK  137  A    between atoms: _342  and  _343
REMARK  138  A    between atoms: _348  and  _349
REMARK  139  A    between atoms: _351  and  _353
REMARK  140  A    between atoms: _353  and  _354
REMARK  141  A    between atoms: _353  and  _356
REMARK  142  A    between atoms: _356  and  _357
REMARK  143  A    between atoms: _362  and  _364
REMARK  144  A    between atoms: _364  and  _365
REMARK  145  A    between atoms: _364  and  _367
REMARK  146  A    between atoms: _367  and  _368
REMARK  147  A    between atoms: _371  and  _373
REMARK  148  A    between atoms: _373  and  _374
REMARK  149  A    between atoms: _373  and  _376
REMARK  150  A    between atoms: _376  and  _377
REMARK  151  A    between atoms: _382  and  _384
REMARK  152  A    between atoms: _384  and  _385
REMARK  153  A    between atoms: _384  and  _387
REMARK  154  A    between atoms: _387  and  _388
REMARK  155  A    between atoms: _398  and  _400
REMARK  156  A    between atoms: _400  and  _401
REMARK  157  A    between atoms: _400  and  _403
REMARK  158  A    between atoms: _403  and  _404
REMARK  159  A    between atoms: _410  and  _412
REMARK  160  A    between atoms: _412  and  _413
REMARK  161  A    between atoms: _412  and  _415
REMARK  162  A    between atoms: _415  and  _416
REMARK  163  A    between atoms: _419  and  _421
REMARK  164  A    between atoms: _421  and  _422
REMARK  165  A    between atoms: _421  and  _424
REMARK  166  A    between atoms: _424  and  _425
REMARK  167  A    between atoms: _425  and  _426
REMARK  168  A    between atoms: _426  and  _427
REMARK  169  A    between atoms: _436  and  _438
REMARK  170  A    between atoms: _438  and  _439
REMARK  171  A    between atoms: _438  and  _441
REMARK  172  A    between atoms: _441  and  _442
REMARK  173  A    between atoms: _447  and  _449
REMARK  174  A    between atoms: _449  and  _450
REMARK  175  A    between atoms: _449  and  _452
REMARK  176  A    between atoms: _452  and  _453
REMARK  177  A    between atoms: _453  and  _454
REMARK  178  A    between atoms: _454  and  _455
REMARK  179  A    between atoms: _464  and  _466
REMARK  180  A    between atoms: _466  and  _467
REMARK  181  A    between atoms: _470  and  _472
REMARK  182  A    between atoms: _472  and  _473
REMARK  183  A    between atoms: _475  and  _477
REMARK  184  A    between atoms: _477  and  _478
REMARK  185  A    between atoms: _477  and  _480
REMARK  186  A    between atoms: _480  and  _481
REMARK  187  A    between atoms: _491  and  _493
REMARK  188  A    between atoms: _493  and  _494
REMARK  189  A    between atoms: _493  and  _496
REMARK  190  A    between atoms: _496  and  _497
REMARK  191  A    between atoms: _498  and  _500
REMARK  192  A    between atoms: _500  and  _501
REMARK  193  A    between atoms: _504  and  _506
REMARK  194  A    between atoms: _506  and  _507
REMARK  195  A    between atoms: _506  and  _509
REMARK  196  A    between atoms: _509  and  _510
REMARK  197  A    between atoms: _513  and  _515
REMARK  198  A    between atoms: _515  and  _516
REMARK  199  A    between atoms: _515  and  _518
REMARK  200  A    between atoms: _518  and  _519
REMARK  201  A    between atoms: _524  and  _525
REMARK  202  A    between atoms: _527  and  _529
REMARK  203  A    between atoms: _529  and  _530
REMARK  204  A    between atoms: _529  and  _532
REMARK  205  A    between atoms: _532  and  _533
REMARK  206  A    between atoms: _535  and  _537
REMARK  207  A    between atoms: _537  and  _538
REMARK  208  A    between atoms: _537  and  _540
REMARK  209  A    between atoms: _540  and  _541
REMARK  210  A    between atoms: _547  and  _549
REMARK  211  A    between atoms: _549  and  _550
REMARK  212  A    between atoms: _549  and  _552
REMARK  213  A    between atoms: _552  and  _553
REMARK  214  A    between atoms: _556  and  _558
REMARK  215  A    between atoms: _558  and  _559
REMARK  216  A    between atoms: _558  and  _561
REMARK  217  A    between atoms: _561  and  _562
REMARK  218  A    between atoms: _562  and  _563
REMARK  219  A    between atoms: _565  and  _567
REMARK  220  A    between atoms: _567  and  _568
REMARK  221  A    between atoms: _567  and  _570
REMARK  222  A    between atoms: _570  and  _571
REMARK  223  A    between atoms: _573  and  _575
REMARK  224  A    between atoms: _575  and  _576
REMARK  225  A    between atoms: _575  and  _578
REMARK  226  A    between atoms: _578  and  _579
REMARK  227  A    between atoms: _581  and  _583
REMARK  228  A    between atoms: _583  and  _584
REMARK  229  A    between atoms: _583  and  _586
REMARK  230  A    between atoms: _586  and  _587
REMARK  231  A    between atoms: _592  and  _594
REMARK  232  A    between atoms: _594  and  _595
REMARK  233  A    between atoms: _594  and  _597
REMARK  234  A    between atoms: _597  and  _598
REMARK  235  A    between atoms: _603  and  _605
REMARK  236  A    between atoms: _605  and  _606
REMARK  237  A    between atoms: _605  and  _608
REMARK  238  A    between atoms: _608  and  _609
REMARK  239  A    between atoms: _612  and  _614
REMARK  240  A    between atoms: _614  and  _615
REMARK  241  A    between atoms: _618  and  _620
REMARK  242  A    between atoms: _620  and  _621
REMARK  243  A    between atoms: _620  and  _623
REMARK  244  A    between atoms: _623  and  _624
REMARK  245  A    between atoms: _629  and  _631
REMARK  246  A    between atoms: _631  and  _632
REMARK  247  A    between atoms: _631  and  _634
REMARK  248  A    between atoms: _634  and  _635
REMARK  249  A    between atoms: _640  and  _641
REMARK  250  A    between atoms: _643  and  _645
REMARK  251  A    between atoms: _645  and  _646
REMARK  252  A    between atoms: _645  and  _648
REMARK  253  A    between atoms: _648  and  _649
REMARK  254  A    between atoms: _654  and  _655
REMARK  255  A    between atoms: _657  and  _659
REMARK  256  A    between atoms: _659  and  _660
REMARK  257  A    between atoms: _659  and  _662
REMARK  258  A    between atoms: _665  and  _667
REMARK  259  A    between atoms: _667  and  _668
REMARK  260  A    between atoms: _667  and  _670
REMARK  261  A    between atoms: _670  and  _671
REMARK  262  A    between atoms: _676  and  _678
REMARK  263  A    between atoms: _678  and  _679
REMARK  264  A    between atoms: _682  and  _684
REMARK  265  A    between atoms: _684  and  _685
REMARK  266  A    between atoms: _684  and  _687
REMARK  267  A    between atoms: _687  and  _688
REMARK  268  A    between atoms: _688  and  _689
REMARK  269  A    between atoms: _689  and  _690
REMARK  270  A    between atoms: _699  and  _701
REMARK  271  A    between atoms: _701  and  _702
REMARK  272  A    between atoms: _701  and  _704
REMARK  273  A    between atoms: _704  and  _705
REMARK  274  A    between atoms: _708  and  _710
REMARK  275  A    between atoms: _710  and  _711
REMARK  276  A    between atoms: _710  and  _713
REMARK  277  A    between atoms: _713  and  _714
REMARK  278  A    between atoms: _717  and  _719
REMARK  279  A    between atoms: _719  and  _720
REMARK  280  A    between atoms: _719  and  _722
REMARK  281  A    between atoms: _722  and  _723
REMARK                            x       y       z     vdW  Elec       q    Type
REMARK                         _______ _______ _______ _____ _____    ______ ____
ROOT
ATOM      1  O   HOH     1       1.513  14.919   8.583  0.00  0.00    +0.000 OA
ENDROOT
TORSDOF 0
REMARK  Name = ../refined-set-2016/1qka/1qka_pocket.pdb
REMARK  281 active torsions:
REMARK  status: ('A' for Active; 'I' for Inactive)
REMARK    1  A    between atoms: _1  and  _3
REMARK    2  A    between atoms: _3  and  _4
REMARK    3  A    between atoms: _3  and  _6
REMARK    4  A    between atoms: _6  and  _7
REMARK    5  A    between atoms: _12  and  _14
REMARK    6  A    between atoms: _14  and  _15
REMARK    7  A    between atoms: _17  and  _19
REMARK    8  A    between atoms: _19  and  _20
REMARK    9  A    between atoms: _19  and  _22
REMARK   10  A    between atoms: _22  and  _23
REMARK   11  A    between atoms: _25  and  _27
REMARK   12  A    between atoms: _27  and  _28
REMARK   13  A    between atoms: _27  and  _30
REMARK   14  A    between atoms: _30  and  _31
REMARK   15  A    between atoms: _31  and  _32
REMARK   16  A    between atoms: _37  and  _39
REMARK   17  A    between atoms: _39  and  _40
REMARK   18  A    between atoms: _39  and  _42
REMARK   19  A    between atoms: _42  and  _43
REMARK   20  A    between atoms: _46  and  _48
REMARK   21  A    between atoms: _48  and  _49
REMARK   22  A    between atoms: _48  and  _51
REMARK   23  A    between atoms: _51  and  _52
REMARK   24  A    between atoms: _52  and  _53
REMARK   25  A    between atoms: _56  and  _58
REMARK   26  A    between atoms: _58  and  _59
REMARK   27  A    between atoms: _61  and  _63
REMARK   28  A    between atoms: _63  and  _64
REMARK   29  A    between atoms: _63  and  _66
REMARK   30  A    between atoms: _70  and  _71
REMARK   31  A    between atoms: _76  and  _78
REMARK   32  A    between atoms: _78  and  _79
REMARK   33  A    between atoms: _78  and  _81
REMARK   34  A    between atoms: _81  and  _82
REMARK   35  A    between atoms: _82  and  _83
REMARK   36  A    between atoms: _86  and  _88
REMARK   37  A    between atoms: _88  and  _89
REMARK   38  A    between atoms: _88  and  _91
REMARK   39  A    between atoms: _91  and  _92
REMARK   40  A    between atoms: _94  and  _96
REMARK   41  A    between atoms: _96  and  _97
REMARK   42  A    between atoms: _96  and  _99
REMARK   43  A    between atoms: _99  and  _100
REMARK   44  A    between atoms: _105  and  _107
REMARK   45  A    between atoms: _107  and  _108
REMARK   46  A    between atoms: _107  and  _110
REMARK   47  A    between atoms: _110  and  _111
REMARK   48  A    between atoms: _111  and  _112
REMARK   49  A    between atoms: _112  and  _113
REMARK   50  A    between atoms: _123  and  _124
REMARK   51  A    between atoms: _129  and  _131
REMARK   52  A    between atoms: _131  and  _132
REMARK   53  A    between atoms: _131  and  _134
REMARK   54  A    between atoms: _134  and  _135
REMARK   55  A    between atoms: _140  and  _141
REMARK   56  A    between atoms: _143  and  _145
REMARK   57  A    between atoms: _145  and  _146
REMARK   58  A    between atoms: _145  and  _148
REMARK   59  A    between atoms: _148  and  _149
REMARK   60  A    between atoms: _154  and  _155
REMARK   61  A    between atoms: _157  and  _159
REMARK   62  A    between atoms: _159  and  _160
REMARK   63  A    between atoms: _159  and  _162
REMARK   64  A    between atoms: _162  and  _163
REMARK   65  A    between atoms: _168  and  _169
REMARK   66  A    between atoms: _171  and  _173
REMARK   67  A    between atoms: _173  and  _174
REMARK   68  A    between atoms: _173  and  _176
REMARK   69  A    between atoms: _179  and  _181
REMARK   70  A    between atoms: _181  and  _182
REMARK   71  A    between atoms: _181  and  _184
REMARK   72  A    between atoms: _184  and  _185
REMARK   73  A    between atoms: _191  and  _192
REMARK   74  A    between atoms: _197  and  _199
REMARK   75  A    between atoms: _199  and  _200
REMARK   76  A    between atoms: _199  and  _202
REMARK   77  A    between atoms: _202  and  _203
REMARK   78  A    between atoms: _205  and  _207
REMARK   79  A    between atoms: _207  and  _208
REMARK   80  A    between atoms: _207  and  _210
REMARK   81  A    between atoms: _210  and  _211
REMARK   82  A    between atoms: _211  and  _212
REMARK   83  A    between atoms: _215  and  _217
REMARK   84  A    between atoms: _217  and  _218
REMARK   85  A    between atoms: _217  and  _220
REMARK   86  A    between atoms: _220  and  _221
REMARK   87  A    between atoms: _226  and  _227
REMARK   88  A    between atoms: _229  and  _231
REMARK   89  A    between atoms: _231  and  _232
REMARK   90  A    between atoms: _231  and  _234
REMARK   91  A    between atoms: _234  and  _235
REMARK   92  A    between atoms: _240  and  _242
REMARK   93  A    between atoms: _242  and  _243
REMARK   94  A    between atoms: _242  and  _245
REMARK   95  A    between atoms: _245  and  _246
REMARK   96  A    between atoms: _251  and  _253
REMARK   97  A    between atoms: _253  and  _254
REMARK   98  A    between atoms: _253  and  _256
REMARK   99  A    between atoms: _256  and  _257
REMARK  100  A    between atoms: _257  and  _258
REMARK  101  A    between atoms: _260  and  _262
REMARK  102  A    between atoms: _262  and  _263
REMARK  103  A    between atoms: _262  and  _265
REMARK  104  A    between atoms: _265  and  _266
REMARK  105  A    between atoms: _271  and  _272
REMARK  106  A    between atoms: _274  and  _276
REMARK  107  A    between atoms: _276  and  _277
REMARK  108  A    between atoms: _276  and  _279
REMARK  109  A    between atoms: _279  and  _280
REMARK  110  A    between atoms: _283  and  _285
REMARK  111  A    between atoms: _285  and  _286
REMARK  112  A    between atoms: _285  and  _288
REMARK  113  A    between atoms: _288  and  _289
REMARK  114  A    between atoms: _289  and  _497
REMARK  115  A    between atoms: _290  and  _292
REMARK  116  A    between atoms: _292  and  _293
REMARK  117  A    between atoms: _292  and  _295
REMARK  118  A    between atoms: _295  and  _296
REMARK  119  A    between atoms: _299  and  _301
REMARK  120  A    between atoms: _301  and  _302
REMARK  121  A    between atoms: _301  and  _304
REMARK  122  A    between atoms: _304  and  _305
REMARK  123  A    between atoms: _310  and  _311
REMARK  124  A    between atoms: _313  and  _315
REMARK  125  A    between atoms: _315  and  _316
REMARK  126  A    between atoms: _315  and  _318
REMARK  127  A    between atoms: _318  and  _319
REMARK  128  A    between atoms: _324  and  _325
REMARK  129  A    between atoms: _327  and  _329
REMARK  130  A    between atoms: _329  and  _330
REMARK  131  A    between atoms: _329  and  _332
REMARK  132  A    between atoms: _332  and  _333
REMARK  133  A    between atoms: _333  and  _334
REMARK  134  A    between atoms: _337  and  _339
REMARK  135  A    between atoms: _339  and  _340
REMARK  136  A    between atoms: _339  and  _342
REMARK  137  A    between atoms: _342  and  _343
REMARK  138  A    between atoms: _348  and  _349
REMARK  139  A    between atoms: _351  and  _353
REMARK  140  A    between atoms: _353  and  _354
REMARK  141  A    between atoms: _353  and  _356
REMARK  142  A    between atoms: _356  and  _357
REMARK  143  A    between atoms: _362  and  _364
REMARK  144  A    between atoms: _364  and  _365
REMARK  145  A    between atoms: _364  and  _367
REMARK  146  A    between atoms: _367  and  _368
REMARK  147  A    between atoms: _371  and  _373
REMARK  148  A    between atoms: _373  and  _374
REMARK  149  A    between atoms: _373  and  _376
REMARK  150  A    between atoms: _376  and  _377
REMARK  151  A    between atoms: _382  and  _384
REMARK  152  A    between atoms: _384  and  _385
REMARK  153  A    between atoms: _384  and  _387
REMARK  154  A    between atoms: _387  and  _388
REMARK  155  A    between atoms: _398  and  _400
REMARK  156  A    between atoms: _400  and  _401
REMARK  157  A    between atoms: _400  and  _403
REMARK  158  A    between atoms: _403  and  _404
REMARK  159  A    between atoms: _410  and  _412
REMARK  160  A    between atoms: _412  and  _413
REMARK  161  A    between atoms: _412  and  _415
REMARK  162  A    between atoms: _415  and  _416
REMARK  163  A    between atoms: _419  and  _421
REMARK  164  A    between atoms: _421  and  _422
REMARK  165  A    between atoms: _421  and  _424
REMARK  166  A    between atoms: _424  and  _425
REMARK  167  A    between atoms: _425  and  _426
REMARK  168  A    between atoms: _426  and  _427
REMARK  169  A    between atoms: _436  and  _438
REMARK  170  A    between atoms: _438  and  _439
REMARK  171  A    between atoms: _438  and  _441
REMARK  172  A    between atoms: _441  and  _442
REMARK  173  A    between atoms: _447  and  _449
REMARK  174  A    between atoms: _449  and  _450
REMARK  175  A    between atoms: _449  and  _452
REMARK  176  A    between atoms: _452  and  _453
REMARK  177  A    between atoms: _453  and  _454
REMARK  178  A    between atoms: _454  and  _455
REMARK  179  A    between atoms: _464  and  _466
REMARK  180  A    between atoms: _466  and  _467
REMARK  181  A    between atoms: _470  and  _472
REMARK  182  A    between atoms: _472  and  _473
REMARK  183  A    between atoms: _475  and  _477
REMARK  184  A    between atoms: _477  and  _478
REMARK  185  A    between atoms: _477  and  _480
REMARK  186  A    between atoms: _480  and  _481
REMARK  187  A    between atoms: _491  and  _493
REMARK  188  A    between atoms: _493  and  _494
REMARK  189  A    between atoms: _493  and  _496
REMARK  190  A    between atoms: _496  and  _497
REMARK  191  A    between atoms: _498  and  _500
REMARK  192  A    between atoms: _500  and  _501
REMARK  193  A    between atoms: _504  and  _506
REMARK  194  A    between atoms: _506  and  _507
REMARK  195  A    between atoms: _506  and  _509
REMARK  196  A    between atoms: _509  and  _510
REMARK  197  A    between atoms: _513  and  _515
REMARK  198  A    between atoms: _515  and  _516
REMARK  199  A    between atoms: _515  and  _518
REMARK  200  A    between atoms: _518  and  _519
REMARK  201  A    between atoms: _524  and  _525
REMARK  202  A    between atoms: _527  and  _529
REMARK  203  A    between atoms: _529  and  _530
REMARK  204  A    between atoms: _529  and  _532
REMARK  205  A    between atoms: _532  and  _533
REMARK  206  A    between atoms: _535  and  _537
REMARK  207  A    between atoms: _537  and  _538
REMARK  208  A    between atoms: _537  and  _540
REMARK  209  A    between atoms: _540  and  _541
REMARK  210  A    between atoms: _547  and  _549
REMARK  211  A    between atoms: _549  and  _550
REMARK  212  A    between atoms: _549  and  _552
REMARK  213  A    between atoms: _552  and  _553
REMARK  214  A    between atoms: _556  and  _558
REMARK  215  A    between atoms: _558  and  _559
REMARK  216  A    between atoms: _558  and  _561
REMARK  217  A    between atoms: _561  and  _562
REMARK  218  A    between atoms: _562  and  _563
REMARK  219  A    between atoms: _565  and  _567
REMARK  220  A    between atoms: _567  and  _568
REMARK  221  A    between atoms: _567  and  _570
REMARK  222  A    between atoms: _570  and  _571
REMARK  223  A    between atoms: _573  and  _575
REMARK  224  A    between atoms: _575  and  _576
REMARK  225  A    between atoms: _575  and  _578
REMARK  226  A    between atoms: _578  and  _579
REMARK  227  A    between atoms: _581  and  _583
REMARK  228  A    between atoms: _583  and  _584
REMARK  229  A    between atoms: _583  and  _586
REMARK  230  A    between atoms: _586  and  _587
REMARK  231  A    between atoms: _592  and  _594
REMARK  232  A    between atoms: _594  and  _595
REMARK  233  A    between atoms: _594  and  _597
REMARK  234  A    between atoms: _597  and  _598
REMARK  235  A    between atoms: _603  and  _605
REMARK  236  A    between atoms: _605  and  _606
REMARK  237  A    between atoms: _605  and  _608
REMARK  238  A    between atoms: _608  and  _609
REMARK  239  A    between atoms: _612  and  _614
REMARK  240  A    between atoms: _614  and  _615
REMARK  241  A    between atoms: _618  and  _620
REMARK  242  A    between atoms: _620  and  _621
REMARK  243  A    between atoms: _620  and  _623
REMARK  244  A    between atoms: _623  and  _624
REMARK  245  A    between atoms: _629  and  _631
REMARK  246  A    between atoms: _631  and  _632
REMARK  247  A    between atoms: _631  and  _634
REMARK  248  A    between atoms: _634  and  _635
REMARK  249  A    between atoms: _640  and  _641
REMARK  250  A    between atoms: _643  and  _645
REMARK  251  A    between atoms: _645  and  _646
REMARK  252  A    between atoms: _645  and  _648
REMARK  253  A    between atoms: _648  and  _649
REMARK  254  A    between atoms: _654  and  _655
REMARK  255  A    between atoms: _657  and  _659
REMARK  256  A    between atoms: _659  and  _660
REMARK  257  A    between atoms: _659  and  _662
REMARK  258  A    between atoms: _665  and  _667
REMARK  259  A    between atoms: _667  and  _668
REMARK  260  A    between atoms: _667  and  _670
REMARK  261  A    between atoms: _670  and  _671
REMARK  262  A    between atoms: _676  and  _678
REMARK  263  A    between atoms: _678  and  _679
REMARK  264  A    between atoms: _682  and  _684
REMARK  265  A    between atoms: _684  and  _685
REMARK  266  A    between atoms: _684  and  _687
REMARK  267  A    between atoms: _687  and  _688
REMARK  268  A    between atoms: _688  and  _689
REMARK  269  A    between atoms: _689  and  _690
REMARK  270  A    between atoms: _699  and  _701
REMARK  271  A    between atoms: _701  and  _702
REMARK  272  A    between atoms: _701  and  _704
REMARK  273  A    between atoms: _704  and  _705
REMARK  274  A    between atoms: _708  and  _710
REMARK  275  A    between atoms: _710  and  _711
REMARK  276  A    between atoms: _710  and  _713
REMARK  277  A    between atoms: _713  and  _714
REMARK  278  A    between atoms: _717  and  _719
REMARK  279  A    between atoms: _719  and  _720
REMARK  280  A    between atoms: _719  and  _722
REMARK  281  A    between atoms: _722  and  _723
REMARK                            x       y       z     vdW  Elec       q    Type
REMARK                         _______ _______ _______ _____ _____    ______ ____
ROOT
ATOM      1  O   HOH     1       4.343  13.818   9.326  0.00  0.00    +0.000 OA
ENDROOT
TORSDOF 0
REMARK  Name = ../refined-set-2016/1qka/1qka_pocket.pdb
REMARK  281 active torsions:
REMARK  status: ('A' for Active; 'I' for Inactive)
REMARK    1  A    between atoms: _1  and  _3
REMARK    2  A    between atoms: _3  and  _4
REMARK    3  A    between atoms: _3  and  _6
REMARK    4  A    between atoms: _6  and  _7
REMARK    5  A    between atoms: _12  and  _14
REMARK    6  A    between atoms: _14  and  _15
REMARK    7  A    between atoms: _17  and  _19
REMARK    8  A    between atoms: _19  and  _20
REMARK    9  A    between atoms: _19  and  _22
REMARK   10  A    between atoms: _22  and  _23
REMARK   11  A    between atoms: _25  and  _27
REMARK   12  A    between atoms: _27  and  _28
REMARK   13  A    between atoms: _27  and  _30
REMARK   14  A    between atoms: _30  and  _31
REMARK   15  A    between atoms: _31  and  _32
REMARK   16  A    between atoms: _37  and  _39
REMARK   17  A    between atoms: _39  and  _40
REMARK   18  A    between atoms: _39  and  _42
REMARK   19  A    between atoms: _42  and  _43
REMARK   20  A    between atoms: _46  and  _48
REMARK   21  A    between atoms: _48  and  _49
REMARK   22  A    between atoms: _48  and  _51
REMARK   23  A    between atoms: _51  and  _52
REMARK   24  A    between atoms: _52  and  _53
REMARK   25  A    between atoms: _56  and  _58
REMARK   26  A    between atoms: _58  and  _59
REMARK   27  A    between atoms: _61  and  _63
REMARK   28  A    between atoms: _63  and  _64
REMARK   29  A    between atoms: _63  and  _66
REMARK   30  A    between atoms: _70  and  _71
REMARK   31  A    between atoms: _76  and  _78
REMARK   32  A    between atoms: _78  and  _79
REMARK   33  A    between atoms: _78  and  _81
REMARK   34  A    between atoms: _81  and  _82
REMARK   35  A    between atoms: _82  and  _83
REMARK   36  A    between atoms: _86  and  _88
REMARK   37  A    between atoms: _88  and  _89
REMARK   38  A    between atoms: _88  and  _91
REMARK   39  A    between atoms: _91  and  _92
REMARK   40  A    between atoms: _94  and  _96
REMARK   41  A    between atoms: _96  and  _97
REMARK   42  A    between atoms: _96  and  _99
REMARK   43  A    between atoms: _99  and  _100
REMARK   44  A    between atoms: _105  and  _107
REMARK   45  A    between atoms: _107  and  _108
REMARK   46  A    between atoms: _107  and  _110
REMARK   47  A    between atoms: _110  and  _111
REMARK   48  A    between atoms: _111  and  _112
REMARK   49  A    between atoms: _112  and  _113
REMARK   50  A    between atoms: _123  and  _124
REMARK   51  A    between atoms: _129  and  _131
REMARK   52  A    between atoms: _131  and  _132
REMARK   53  A    between atoms: _131  and  _134
REMARK   54  A    between atoms: _134  and  _135
REMARK   55  A    between atoms: _140  and  _141
REMARK   56  A    between atoms: _143  and  _145
REMARK   57  A    between atoms: _145  and  _146
REMARK   58  A    between atoms: _145  and  _148
REMARK   59  A    between atoms: _148  and  _149
REMARK   60  A    between atoms: _154  and  _155
REMARK   61  A    between atoms: _157  and  _159
REMARK   62  A    between atoms: _159  and  _160
REMARK   63  A    between atoms: _159  and  _162
REMARK   64  A    between atoms: _162  and  _163
REMARK   65  A    between atoms: _168  and  _169
REMARK   66  A    between atoms: _171  and  _173
REMARK   67  A    between atoms: _173  and  _174
REMARK   68  A    between atoms: _173  and  _176
REMARK   69  A    between atoms: _179  and  _181
REMARK   70  A    between atoms: _181  and  _182
REMARK   71  A    between atoms: _181  and  _184
REMARK   72  A    between atoms: _184  and  _185
REMARK   73  A    between atoms: _191  and  _192
REMARK   74  A    between atoms: _197  and  _199
REMARK   75  A    between atoms: _199  and  _200
REMARK   76  A    between atoms: _199  and  _202
REMARK   77  A    between atoms: _202  and  _203
REMARK   78  A    between atoms: _205  and  _207
REMARK   79  A    between atoms: _207  and  _208
REMARK   80  A    between atoms: _207  and  _210
REMARK   81  A    between atoms: _210  and  _211
REMARK   82  A    between atoms: _211  and  _212
REMARK   83  A    between atoms: _215  and  _217
REMARK   84  A    between atoms: _217  and  _218
REMARK   85  A    between atoms: _217  and  _220
REMARK   86  A    between atoms: _220  and  _221
REMARK   87  A    between atoms: _226  and  _227
REMARK   88  A    between atoms: _229  and  _231
REMARK   89  A    between atoms: _231  and  _232
REMARK   90  A    between atoms: _231  and  _234
REMARK   91  A    between atoms: _234  and  _235
REMARK   92  A    between atoms: _240  and  _242
REMARK   93  A    between atoms: _242  and  _243
REMARK   94  A    between atoms: _242  and  _245
REMARK   95  A    between atoms: _245  and  _246
REMARK   96  A    between atoms: _251  and  _253
REMARK   97  A    between atoms: _253  and  _254
REMARK   98  A    between atoms: _253  and  _256
REMARK   99  A    between atoms: _256  and  _257
REMARK  100  A    between atoms: _257  and  _258
REMARK  101  A    between atoms: _260  and  _262
REMARK  102  A    between atoms: _262  and  _263
REMARK  103  A    between atoms: _262  and  _265
REMARK  104  A    between atoms: _265  and  _266
REMARK  105  A    between atoms: _271  and  _272
REMARK  106  A    between atoms: _274  and  _276
REMARK  107  A    between atoms: _276  and  _277
REMARK  108  A    between atoms: _276  and  _279
REMARK  109  A    between atoms: _279  and  _280
REMARK  110  A    between atoms: _283  and  _285
REMARK  111  A    between atoms: _285  and  _286
REMARK  112  A    between atoms: _285  and  _288
REMARK  113  A    between atoms: _288  and  _289
REMARK  114  A    between atoms: _289  and  _497
REMARK  115  A    between atoms: _290  and  _292
REMARK  116  A    between atoms: _292  and  _293
REMARK  117  A    between atoms: _292  and  _295
REMARK  118  A    between atoms: _295  and  _296
REMARK  119  A    between atoms: _299  and  _301
REMARK  120  A    between atoms: _301  and  _302
REMARK  121  A    between atoms: _301  and  _304
REMARK  122  A    between atoms: _304  and  _305
REMARK  123  A    between atoms: _310  and  _311
REMARK  124  A    between atoms: _313  and  _315
REMARK  125  A    between atoms: _315  and  _316
REMARK  126  A    between atoms: _315  and  _318
REMARK  127  A    between atoms: _318  and  _319
REMARK  128  A    between atoms: _324  and  _325
REMARK  129  A    between atoms: _327  and  _329
REMARK  130  A    between atoms: _329  and  _330
REMARK  131  A    between atoms: _329  and  _332
REMARK  132  A    between atoms: _332  and  _333
REMARK  133  A    between atoms: _333  and  _334
REMARK  134  A    between atoms: _337  and  _339
REMARK  135  A    between atoms: _339  and  _340
REMARK  136  A    between atoms: _339  and  _342
REMARK  137  A    between atoms: _342  and  _343
REMARK  138  A    between atoms: _348  and  _349
REMARK  139  A    between atoms: _351  and  _353
REMARK  140  A    between atoms: _353  and  _354
REMARK  141  A    between atoms: _353  and  _356
REMARK  142  A    between atoms: _356  and  _357
REMARK  143  A    between atoms: _362  and  _364
REMARK  144  A    between atoms: _364  and  _365
REMARK  145  A    between atoms: _364  and  _367
REMARK  146  A    between atoms: _367  and  _368
REMARK  147  A    between atoms: _371  and  _373
REMARK  148  A    between atoms: _373  and  _374
REMARK  149  A    between atoms: _373  and  _376
REMARK  150  A    between atoms: _376  and  _377
REMARK  151  A    between atoms: _382  and  _384
REMARK  152  A    between atoms: _384  and  _385
REMARK  153  A    between atoms: _384  and  _387
REMARK  154  A    between atoms: _387  and  _388
REMARK  155  A    between atoms: _398  and  _400
REMARK  156  A    between atoms: _400  and  _401
REMARK  157  A    between atoms: _400  and  _403
REMARK  158  A    between atoms: _403  and  _404
REMARK  159  A    between atoms: _410  and  _412
REMARK  160  A    between atoms: _412  and  _413
REMARK  161  A    between atoms: _412  and  _415
REMARK  162  A    between atoms: _415  and  _416
REMARK  163  A    between atoms: _419  and  _421
REMARK  164  A    between atoms: _421  and  _422
REMARK  165  A    between atoms: _421  and  _424
REMARK  166  A    between atoms: _424  and  _425
REMARK  167  A    between atoms: _425  and  _426
REMARK  168  A    between atoms: _426  and  _427
REMARK  169  A    between atoms: _436  and  _438
REMARK  170  A    between atoms: _438  and  _439
REMARK  171  A    between atoms: _438  and  _441
REMARK  172  A    between atoms: _441  and  _442
REMARK  173  A    between atoms: _447  and  _449
REMARK  174  A    between atoms: _449  and  _450
REMARK  175  A    between atoms: _449  and  _452
REMARK  176  A    between atoms: _452  and  _453
REMARK  177  A    between atoms: _453  and  _454
REMARK  178  A    between atoms: _454  and  _455
REMARK  179  A    between atoms: _464  and  _466
REMARK  180  A    between atoms: _466  and  _467
REMARK  181  A    between atoms: _470  and  _472
REMARK  182  A    between atoms: _472  and  _473
REMARK  183  A    between atoms: _475  and  _477
REMARK  184  A    between atoms: _477  and  _478
REMARK  185  A    between atoms: _477  and  _480
REMARK  186  A    between atoms: _480  and  _481
REMARK  187  A    between atoms: _491  and  _493
REMARK  188  A    between atoms: _493  and  _494
REMARK  189  A    between atoms: _493  and  _496
REMARK  190  A    between atoms: _496  and  _497
REMARK  191  A    between atoms: _498  and  _500
REMARK  192  A    between atoms: _500  and  _501
REMARK  193  A    between atoms: _504  and  _506
REMARK  194  A    between atoms: _506  and  _507
REMARK  195  A    between atoms: _506  and  _509
REMARK  196  A    between atoms: _509  and  _510
REMARK  197  A    between atoms: _513  and  _515
REMARK  198  A    between atoms: _515  and  _516
REMARK  199  A    between atoms: _515  and  _518
REMARK  200  A    between atoms: _518  and  _519
REMARK  201  A    between atoms: _524  and  _525
REMARK  202  A    between atoms: _527  and  _529
REMARK  203  A    between atoms: _529  and  _530
REMARK  204  A    between atoms: _529  and  _532
REMARK  205  A    between atoms: _532  and  _533
REMARK  206  A    between atoms: _535  and  _537
REMARK  207  A    between atoms: _537  and  _538
REMARK  208  A    between atoms: _537  and  _540
REMARK  209  A    between atoms: _540  and  _541
REMARK  210  A    between atoms: _547  and  _549
REMARK  211  A    between atoms: _549  and  _550
REMARK  212  A    between atoms: _549  and  _552
REMARK  213  A    between atoms: _552  and  _553
REMARK  214  A    between atoms: _556  and  _558
REMARK  215  A    between atoms: _558  and  _559
REMARK  216  A    between atoms: _558  and  _561
REMARK  217  A    between atoms: _561  and  _562
REMARK  218  A    between atoms: _562  and  _563
REMARK  219  A    between atoms: _565  and  _567
REMARK  220  A    between atoms: _567  and  _568
REMARK  221  A    between atoms: _567  and  _570
REMARK  222  A    between atoms: _570  and  _571
REMARK  223  A    between atoms: _573  and  _575
REMARK  224  A    between atoms: _575  and  _576
REMARK  225  A    between atoms: _575  and  _578
REMARK  226  A    between atoms: _578  and  _579
REMARK  227  A    between atoms: _581  and  _583
REMARK  228  A    between atoms: _583  and  _584
REMARK  229  A    between atoms: _583  and  _586
REMARK  230  A    between atoms: _586  and  _587
REMARK  231  A    between atoms: _592  and  _594
REMARK  232  A    between atoms: _594  and  _595
REMARK  233  A    between atoms: _594  and  _597
REMARK  234  A    between atoms: _597  and  _598
REMARK  235  A    between atoms: _603  and  _605
REMARK  236  A    between atoms: _605  and  _606
REMARK  237  A    between atoms: _605  and  _608
REMARK  238  A    between atoms: _608  and  _609
REMARK  239  A    between atoms: _612  and  _614
REMARK  240  A    between atoms: _614  and  _615
REMARK  241  A    between atoms: _618  and  _620
REMARK  242  A    between atoms: _620  and  _621
REMARK  243  A    between atoms: _620  and  _623
REMARK  244  A    between atoms: _623  and  _624
REMARK  245  A    between atoms: _629  and  _631
REMARK  246  A    between atoms: _631  and  _632
REMARK  247  A    between atoms: _631  and  _634
REMARK  248  A    between atoms: _634  and  _635
REMARK  249  A    between atoms: _640  and  _641
REMARK  250  A    between atoms: _643  and  _645
REMARK  251  A    between atoms: _645  and  _646
REMARK  252  A    between atoms: _645  and  _648
REMARK  253  A    between atoms: _648  and  _649
REMARK  254  A    between atoms: _654  and  _655
REMARK  255  A    between atoms: _657  and  _659
REMARK  256  A    between atoms: _659  and  _660
REMARK  257  A    between atoms: _659  and  _662
REMARK  258  A    between atoms: _665  and  _667
REMARK  259  A    between atoms: _667  and  _668
REMARK  260  A    between atoms: _667  and  _670
REMARK  261  A    between atoms: _670  and  _671
REMARK  262  A    between atoms: _676  and  _678
REMARK  263  A    between atoms: _678  and  _679
REMARK  264  A    between atoms: _682  and  _684
REMARK  265  A    between atoms: _684  and  _685
REMARK  266  A    between atoms: _684  and  _687
REMARK  267  A    between atoms: _687  and  _688
REMARK  268  A    between atoms: _688  and  _689
REMARK  269  A    between atoms: _689  and  _690
REMARK  270  A    between atoms: _699  and  _701
REMARK  271  A    between atoms: _701  and  _702
REMARK  272  A    between atoms: _701  and  _704
REMARK  273  A    between atoms: _704  and  _705
REMARK  274  A    between atoms: _708  and  _710
REMARK  275  A    between atoms: _710  and  _711
REMARK  276  A    between atoms: _710  and  _713
REMARK  277  A    between atoms: _713  and  _714
REMARK  278  A    between atoms: _717  and  _719
REMARK  279  A    between atoms: _719  and  _720
REMARK  280  A    between atoms: _719  and  _722
REMARK  281  A    between atoms: _722  and  _723
REMARK                            x       y       z     vdW  Elec       q    Type
REMARK                         _______ _______ _______ _____ _____    ______ ____
ROOT
ATOM      1  O   HOH     1       8.133  11.307   5.191  0.00  0.00    +0.000 OA
ENDROOT
TORSDOF 0
REMARK  Name = ../refined-set-2016/1qka/1qka_pocket.pdb
REMARK  281 active torsions:
REMARK  status: ('A' for Active; 'I' for Inactive)
REMARK    1  A    between atoms: _1  and  _3
REMARK    2  A    between atoms: _3  and  _4
REMARK    3  A    between atoms: _3  and  _6
REMARK    4  A    between atoms: _6  and  _7
REMARK    5  A    between atoms: _12  and  _14
REMARK    6  A    between atoms: _14  and  _15
REMARK    7  A    between atoms: _17  and  _19
REMARK    8  A    between atoms: _19  and  _20
REMARK    9  A    between atoms: _19  and  _22
REMARK   10  A    between atoms: _22  and  _23
REMARK   11  A    between atoms: _25  and  _27
REMARK   12  A    between atoms: _27  and  _28
REMARK   13  A    between atoms: _27  and  _30
REMARK   14  A    between atoms: _30  and  _31
REMARK   15  A    between atoms: _31  and  _32
REMARK   16  A    between atoms: _37  and  _39
REMARK   17  A    between atoms: _39  and  _40
REMARK   18  A    between atoms: _39  and  _42
REMARK   19  A    between atoms: _42  and  _43
REMARK   20  A    between atoms: _46  and  _48
REMARK   21  A    between atoms: _48  and  _49
REMARK   22  A    between atoms: _48  and  _51
REMARK   23  A    between atoms: _51  and  _52
REMARK   24  A    between atoms: _52  and  _53
REMARK   25  A    between atoms: _56  and  _58
REMARK   26  A    between atoms: _58  and  _59
REMARK   27  A    between atoms: _61  and  _63
REMARK   28  A    between atoms: _63  and  _64
REMARK   29  A    between atoms: _63  and  _66
REMARK   30  A    between atoms: _70  and  _71
REMARK   31  A    between atoms: _76  and  _78
REMARK   32  A    between atoms: _78  and  _79
REMARK   33  A    between atoms: _78  and  _81
REMARK   34  A    between atoms: _81  and  _82
REMARK   35  A    between atoms: _82  and  _83
REMARK   36  A    between atoms: _86  and  _88
REMARK   37  A    between atoms: _88  and  _89
REMARK   38  A    between atoms: _88  and  _91
REMARK   39  A    between atoms: _91  and  _92
REMARK   40  A    between atoms: _94  and  _96
REMARK   41  A    between atoms: _96  and  _97
REMARK   42  A    between atoms: _96  and  _99
REMARK   43  A    between atoms: _99  and  _100
REMARK   44  A    between atoms: _105  and  _107
REMARK   45  A    between atoms: _107  and  _108
REMARK   46  A    between atoms: _107  and  _110
REMARK   47  A    between atoms: _110  and  _111
REMARK   48  A    between atoms: _111  and  _112
REMARK   49  A    between atoms: _112  and  _113
REMARK   50  A    between atoms: _123  and  _124
REMARK   51  A    between atoms: _129  and  _131
REMARK   52  A    between atoms: _131  and  _132
REMARK   53  A    between atoms: _131  and  _134
REMARK   54  A    between atoms: _134  and  _135
REMARK   55  A    between atoms: _140  and  _141
REMARK   56  A    between atoms: _143  and  _145
REMARK   57  A    between atoms: _145  and  _146
REMARK   58  A    between atoms: _145  and  _148
REMARK   59  A    between atoms: _148  and  _149
REMARK   60  A    between atoms: _154  and  _155
REMARK   61  A    between atoms: _157  and  _159
REMARK   62  A    between atoms: _159  and  _160
REMARK   63  A    between atoms: _159  and  _162
REMARK   64  A    between atoms: _162  and  _163
REMARK   65  A    between atoms: _168  and  _169
REMARK   66  A    between atoms: _171  and  _173
REMARK   67  A    between atoms: _173  and  _174
REMARK   68  A    between atoms: _173  and  _176
REMARK   69  A    between atoms: _179  and  _181
REMARK   70  A    between atoms: _181  and  _182
REMARK   71  A    between atoms: _181  and  _184
REMARK   72  A    between atoms: _184  and  _185
REMARK   73  A    between atoms: _191  and  _192
REMARK   74  A    between atoms: _197  and  _199
REMARK   75  A    between atoms: _199  and  _200
REMARK   76  A    between atoms: _199  and  _202
REMARK   77  A    between atoms: _202  and  _203
REMARK   78  A    between atoms: _205  and  _207
REMARK   79  A    between atoms: _207  and  _208
REMARK   80  A    between atoms: _207  and  _210
REMARK   81  A    between atoms: _210  and  _211
REMARK   82  A    between atoms: _211  and  _212
REMARK   83  A    between atoms: _215  and  _217
REMARK   84  A    between atoms: _217  and  _218
REMARK   85  A    between atoms: _217  and  _220
REMARK   86  A    between atoms: _220  and  _221
REMARK   87  A    between atoms: _226  and  _227
REMARK   88  A    between atoms: _229  and  _231
REMARK   89  A    between atoms: _231  and  _232
REMARK   90  A    between atoms: _231  and  _234
REMARK   91  A    between atoms: _234  and  _235
REMARK   92  A    between atoms: _240  and  _242
REMARK   93  A    between atoms: _242  and  _243
REMARK   94  A    between atoms: _242  and  _245
REMARK   95  A    between atoms: _245  and  _246
REMARK   96  A    between atoms: _251  and  _253
REMARK   97  A    between atoms: _253  and  _254
REMARK   98  A    between atoms: _253  and  _256
REMARK   99  A    between atoms: _256  and  _257
REMARK  100  A    between atoms: _257  and  _258
REMARK  101  A    between atoms: _260  and  _262
REMARK  102  A    between atoms: _262  and  _263
REMARK  103  A    between atoms: _262  and  _265
REMARK  104  A    between atoms: _265  and  _266
REMARK  105  A    between atoms: _271  and  _272
REMARK  106  A    between atoms: _274  and  _276
REMARK  107  A    between atoms: _276  and  _277
REMARK  108  A    between atoms: _276  and  _279
REMARK  109  A    between atoms: _279  and  _280
REMARK  110  A    between atoms: _283  and  _285
REMARK  111  A    between atoms: _285  and  _286
REMARK  112  A    between atoms: _285  and  _288
REMARK  113  A    between atoms: _288  and  _289
REMARK  114  A    between atoms: _289  and  _497
REMARK  115  A    between atoms: _290  and  _292
REMARK  116  A    between atoms: _292  and  _293
REMARK  117  A    between atoms: _292  and  _295
REMARK  118  A    between atoms: _295  and  _296
REMARK  119  A    between atoms: _299  and  _301
REMARK  120  A    between atoms: _301  and  _302
REMARK  121  A    between atoms: _301  and  _304
REMARK  122  A    between atoms: _304  and  _305
REMARK  123  A    between atoms: _310  and  _311
REMARK  124  A    between atoms: _313  and  _315
REMARK  125  A    between atoms: _315  and  _316
REMARK  126  A    between atoms: _315  and  _318
REMARK  127  A    between atoms: _318  and  _319
REMARK  128  A    between atoms: _324  and  _325
REMARK  129  A    between atoms: _327  and  _329
REMARK  130  A    between atoms: _329  and  _330
REMARK  131  A    between atoms: _329  and  _332
REMARK  132  A    between atoms: _332  and  _333
REMARK  133  A    between atoms: _333  and  _334
REMARK  134  A    between atoms: _337  and  _339
REMARK  135  A    between atoms: _339  and  _340
REMARK  136  A    between atoms: _339  and  _342
REMARK  137  A    between atoms: _342  and  _343
REMARK  138  A    between atoms: _348  and  _349
REMARK  139  A    between atoms: _351  and  _353
REMARK  140  A    between atoms: _353  and  _354
REMARK  141  A    between atoms: _353  and  _356
REMARK  142  A    between atoms: _356  and  _357
REMARK  143  A    between atoms: _362  and  _364
REMARK  144  A    between atoms: _364  and  _365
REMARK  145  A    between atoms: _364  and  _367
REMARK  146  A    between atoms: _367  and  _368
REMARK  147  A    between atoms: _371  and  _373
REMARK  148  A    between atoms: _373  and  _374
REMARK  149  A    between atoms: _373  and  _376
REMARK  150  A    between atoms: _376  and  _377
REMARK  151  A    between atoms: _382  and  _384
REMARK  152  A    between atoms: _384  and  _385
REMARK  153  A    between atoms: _384  and  _387
REMARK  154  A    between atoms: _387  and  _388
REMARK  155  A    between atoms: _398  and  _400
REMARK  156  A    between atoms: _400  and  _401
REMARK  157  A    between atoms: _400  and  _403
REMARK  158  A    between atoms: _403  and  _404
REMARK  159  A    between atoms: _410  and  _412
REMARK  160  A    between atoms: _412  and  _413
REMARK  161  A    between atoms: _412  and  _415
REMARK  162  A    between atoms: _415  and  _416
REMARK  163  A    between atoms: _419  and  _421
REMARK  164  A    between atoms: _421  and  _422
REMARK  165  A    between atoms: _421  and  _424
REMARK  166  A    between atoms: _424  and  _425
REMARK  167  A    between atoms: _425  and  _426
REMARK  168  A    between atoms: _426  and  _427
REMARK  169  A    between atoms: _436  and  _438
REMARK  170  A    between atoms: _438  and  _439
REMARK  171  A    between atoms: _438  and  _441
REMARK  172  A    between atoms: _441  and  _442
REMARK  173  A    between atoms: _447  and  _449
REMARK  174  A    between atoms: _449  and  _450
REMARK  175  A    between atoms: _449  and  _452
REMARK  176  A    between atoms: _452  and  _453
REMARK  177  A    between atoms: _453  and  _454
REMARK  178  A    between atoms: _454  and  _455
REMARK  179  A    between atoms: _464  and  _466
REMARK  180  A    between atoms: _466  and  _467
REMARK  181  A    between atoms: _470  and  _472
REMARK  182  A    between atoms: _472  and  _473
REMARK  183  A    between atoms: _475  and  _477
REMARK  184  A    between atoms: _477  and  _478
REMARK  185  A    between atoms: _477  and  _480
REMARK  186  A    between atoms: _480  and  _481
REMARK  187  A    between atoms: _491  and  _493
REMARK  188  A    between atoms: _493  and  _494
REMARK  189  A    between atoms: _493  and  _496
REMARK  190  A    between atoms: _496  and  _497
REMARK  191  A    between atoms: _498  and  _500
REMARK  192  A    between atoms: _500  and  _501
REMARK  193  A    between atoms: _504  and  _506
REMARK  194  A    between atoms: _506  and  _507
REMARK  195  A    between atoms: _506  and  _509
REMARK  196  A    between atoms: _509  and  _510
REMARK  197  A    between atoms: _513  and  _515
REMARK  198  A    between atoms: _515  and  _516
REMARK  199  A    between atoms: _515  and  _518
REMARK  200  A    between atoms: _518  and  _519
REMARK  201  A    between atoms: _524  and  _525
REMARK  202  A    between atoms: _527  and  _529
REMARK  203  A    between atoms: _529  and  _530
REMARK  204  A    between atoms: _529  and  _532
REMARK  205  A    between atoms: _532  and  _533
REMARK  206  A    between atoms: _535  and  _537
REMARK  207  A    between atoms: _537  and  _538
REMARK  208  A    between atoms: _537  and  _540
REMARK  209  A    between atoms: _540  and  _541
REMARK  210  A    between atoms: _547  and  _549
REMARK  211  A    between atoms: _549  and  _550
REMARK  212  A    between atoms: _549  and  _552
REMARK  213  A    between atoms: _552  and  _553
REMARK  214  A    between atoms: _556  and  _558
REMARK  215  A    between atoms: _558  and  _559
REMARK  216  A    between atoms: _558  and  _561
REMARK  217  A    between atoms: _561  and  _562
REMARK  218  A    between atoms: _562  and  _563
REMARK  219  A    between atoms: _565  and  _567
REMARK  220  A    between atoms: _567  and  _568
REMARK  221  A    between atoms: _567  and  _570
REMARK  222  A    between atoms: _570  and  _571
REMARK  223  A    between atoms: _573  and  _575
REMARK  224  A    between atoms: _575  and  _576
REMARK  225  A    between atoms: _575  and  _578
REMARK  226  A    between atoms: _578  and  _579
REMARK  227  A    between atoms: _581  and  _583
REMARK  228  A    between atoms: _583  and  _584
REMARK  229  A    between atoms: _583  and  _586
REMARK  230  A    between atoms: _586  and  _587
REMARK  231  A    between atoms: _592  and  _594
REMARK  232  A    between atoms: _594  and  _595
REMARK  233  A    between atoms: _594  and  _597
REMARK  234  A    between atoms: _597  and  _598
REMARK  235  A    between atoms: _603  and  _605
REMARK  236  A    between atoms: _605  and  _606
REMARK  237  A    between atoms: _605  and  _608
REMARK  238  A    between atoms: _608  and  _609
REMARK  239  A    between atoms: _612  and  _614
REMARK  240  A    between atoms: _614  and  _615
REMARK  241  A    between atoms: _618  and  _620
REMARK  242  A    between atoms: _620  and  _621
REMARK  243  A    between atoms: _620  and  _623
REMARK  244  A    between atoms: _623  and  _624
REMARK  245  A    between atoms: _629  and  _631
REMARK  246  A    between atoms: _631  and  _632
REMARK  247  A    between atoms: _631  and  _634
REMARK  248  A    between atoms: _634  and  _635
REMARK  249  A    between atoms: _640  and  _641
REMARK  250  A    between atoms: _643  and  _645
REMARK  251  A    between atoms: _645  and  _646
REMARK  252  A    between atoms: _645  and  _648
REMARK  253  A    between atoms: _648  and  _649
REMARK  254  A    between atoms: _654  and  _655
REMARK  255  A    between atoms: _657  and  _659
REMARK  256  A    between atoms: _659  and  _660
REMARK  257  A    between atoms: _659  and  _662
REMARK  258  A    between atoms: _665  and  _667
REMARK  259  A    between atoms: _667  and  _668
REMARK  260  A    between atoms: _667  and  _670
REMARK  261  A    between atoms: _670  and  _671
REMARK  262  A    between atoms: _676  and  _678
REMARK  263  A    between atoms: _678  and  _679
REMARK  264  A    between atoms: _682  and  _684
REMARK  265  A    between atoms: _684  and  _685
REMARK  266  A    between atoms: _684  and  _687
REMARK  267  A    between atoms: _687  and  _688
REMARK  268  A    between atoms: _688  and  _689
REMARK  269  A    between atoms: _689  and  _690
REMARK  270  A    between atoms: _699  and  _701
REMARK  271  A    between atoms: _701  and  _702
REMARK  272  A    between atoms: _701  and  _704
REMARK  273  A    between atoms: _704  and  _705
REMARK  274  A    between atoms: _708  and  _710
REMARK  275  A    between atoms: _710  and  _711
REMARK  276  A    between atoms: _710  and  _713
REMARK  277  A    between atoms: _713  and  _714
REMARK  278  A    between atoms: _717  and  _719
REMARK  279  A    between atoms: _719  and  _720
REMARK  280  A    between atoms: _719  and  _722
REMARK  281  A    between atoms: _722  and  _723
REMARK                            x       y       z     vdW  Elec       q    Type
REMARK                         _______ _______ _______ _____ _____    ______ ____
ROOT
ATOM      1  O   HOH     1       7.426  19.190  22.672  0.00  0.00    +0.000 OA
ENDROOT
TORSDOF 0
REMARK  Name = ../refined-set-2016/1qka/1qka_pocket.pdb
REMARK  281 active torsions:
REMARK  status: ('A' for Active; 'I' for Inactive)
REMARK    1  A    between atoms: _1  and  _3
REMARK    2  A    between atoms: _3  and  _4
REMARK    3  A    between atoms: _3  and  _6
REMARK    4  A    between atoms: _6  and  _7
REMARK    5  A    between atoms: _12  and  _14
REMARK    6  A    between atoms: _14  and  _15
REMARK    7  A    between atoms: _17  and  _19
REMARK    8  A    between atoms: _19  and  _20
REMARK    9  A    between atoms: _19  and  _22
REMARK   10  A    between atoms: _22  and  _23
REMARK   11  A    between atoms: _25  and  _27
REMARK   12  A    between atoms: _27  and  _28
REMARK   13  A    between atoms: _27  and  _30
REMARK   14  A    between atoms: _30  and  _31
REMARK   15  A    between atoms: _31  and  _32
REMARK   16  A    between atoms: _37  and  _39
REMARK   17  A    between atoms: _39  and  _40
REMARK   18  A    between atoms: _39  and  _42
REMARK   19  A    between atoms: _42  and  _43
REMARK   20  A    between atoms: _46  and  _48
REMARK   21  A    between atoms: _48  and  _49
REMARK   22  A    between atoms: _48  and  _51
REMARK   23  A    between atoms: _51  and  _52
REMARK   24  A    between atoms: _52  and  _53
REMARK   25  A    between atoms: _56  and  _58
REMARK   26  A    between atoms: _58  and  _59
REMARK   27  A    between atoms: _61  and  _63
REMARK   28  A    between atoms: _63  and  _64
REMARK   29  A    between atoms: _63  and  _66
REMARK   30  A    between atoms: _70  and  _71
REMARK   31  A    between atoms: _76  and  _78
REMARK   32  A    between atoms: _78  and  _79
REMARK   33  A    between atoms: _78  and  _81
REMARK   34  A    between atoms: _81  and  _82
REMARK   35  A    between atoms: _82  and  _83
REMARK   36  A    between atoms: _86  and  _88
REMARK   37  A    between atoms: _88  and  _89
REMARK   38  A    between atoms: _88  and  _91
REMARK   39  A    between atoms: _91  and  _92
REMARK   40  A    between atoms: _94  and  _96
REMARK   41  A    between atoms: _96  and  _97
REMARK   42  A    between atoms: _96  and  _99
REMARK   43  A    between atoms: _99  and  _100
REMARK   44  A    between atoms: _105  and  _107
REMARK   45  A    between atoms: _107  and  _108
REMARK   46  A    between atoms: _107  and  _110
REMARK   47  A    between atoms: _110  and  _111
REMARK   48  A    between atoms: _111  and  _112
REMARK   49  A    between atoms: _112  and  _113
REMARK   50  A    between atoms: _123  and  _124
REMARK   51  A    between atoms: _129  and  _131
REMARK   52  A    between atoms: _131  and  _132
REMARK   53  A    between atoms: _131  and  _134
REMARK   54  A    between atoms: _134  and  _135
REMARK   55  A    between atoms: _140  and  _141
REMARK   56  A    between atoms: _143  and  _145
REMARK   57  A    between atoms: _145  and  _146
REMARK   58  A    between atoms: _145  and  _148
REMARK   59  A    between atoms: _148  and  _149
REMARK   60  A    between atoms: _154  and  _155
REMARK   61  A    between atoms: _157  and  _159
REMARK   62  A    between atoms: _159  and  _160
REMARK   63  A    between atoms: _159  and  _162
REMARK   64  A    between atoms: _162  and  _163
REMARK   65  A    between atoms: _168  and  _169
REMARK   66  A    between atoms: _171  and  _173
REMARK   67  A    between atoms: _173  and  _174
REMARK   68  A    between atoms: _173  and  _176
REMARK   69  A    between atoms: _179  and  _181
REMARK   70  A    between atoms: _181  and  _182
REMARK   71  A    between atoms: _181  and  _184
REMARK   72  A    between atoms: _184  and  _185
REMARK   73  A    between atoms: _191  and  _192
REMARK   74  A    between atoms: _197  and  _199
REMARK   75  A    between atoms: _199  and  _200
REMARK   76  A    between atoms: _199  and  _202
REMARK   77  A    between atoms: _202  and  _203
REMARK   78  A    between atoms: _205  and  _207
REMARK   79  A    between atoms: _207  and  _208
REMARK   80  A    between atoms: _207  and  _210
REMARK   81  A    between atoms: _210  and  _211
REMARK   82  A    between atoms: _211  and  _212
REMARK   83  A    between atoms: _215  and  _217
REMARK   84  A    between atoms: _217  and  _218
REMARK   85  A    between atoms: _217  and  _220
REMARK   86  A    between atoms: _220  and  _221
REMARK   87  A    between atoms: _226  and  _227
REMARK   88  A    between atoms: _229  and  _231
REMARK   89  A    between atoms: _231  and  _232
REMARK   90  A    between atoms: _231  and  _234
REMARK   91  A    between atoms: _234  and  _235
REMARK   92  A    between atoms: _240  and  _242
REMARK   93  A    between atoms: _242  and  _243
REMARK   94  A    between atoms: _242  and  _245
REMARK   95  A    between atoms: _245  and  _246
REMARK   96  A    between atoms: _251  and  _253
REMARK   97  A    between atoms: _253  and  _254
REMARK   98  A    between atoms: _253  and  _256
REMARK   99  A    between atoms: _256  and  _257
REMARK  100  A    between atoms: _257  and  _258
REMARK  101  A    between atoms: _260  and  _262
REMARK  102  A    between atoms: _262  and  _263
REMARK  103  A    between atoms: _262  and  _265
REMARK  104  A    between atoms: _265  and  _266
REMARK  105  A    between atoms: _271  and  _272
REMARK  106  A    between atoms: _274  and  _276
REMARK  107  A    between atoms: _276  and  _277
REMARK  108  A    between atoms: _276  and  _279
REMARK  109  A    between atoms: _279  and  _280
REMARK  110  A    between atoms: _283  and  _285
REMARK  111  A    between atoms: _285  and  _286
REMARK  112  A    between atoms: _285  and  _288
REMARK  113  A    between atoms: _288  and  _289
REMARK  114  A    between atoms: _289  and  _497
REMARK  115  A    between atoms: _290  and  _292
REMARK  116  A    between atoms: _292  and  _293
REMARK  117  A    between atoms: _292  and  _295
REMARK  118  A    between atoms: _295  and  _296
REMARK  119  A    between atoms: _299  and  _301
REMARK  120  A    between atoms: _301  and  _302
REMARK  121  A    between atoms: _301  and  _304
REMARK  122  A    between atoms: _304  and  _305
REMARK  123  A    between atoms: _310  and  _311
REMARK  124  A    between atoms: _313  and  _315
REMARK  125  A    between atoms: _315  and  _316
REMARK  126  A    between atoms: _315  and  _318
REMARK  127  A    between atoms: _318  and  _319
REMARK  128  A    between atoms: _324  and  _325
REMARK  129  A    between atoms: _327  and  _329
REMARK  130  A    between atoms: _329  and  _330
REMARK  131  A    between atoms: _329  and  _332
REMARK  132  A    between atoms: _332  and  _333
REMARK  133  A    between atoms: _333  and  _334
REMARK  134  A    between atoms: _337  and  _339
REMARK  135  A    between atoms: _339  and  _340
REMARK  136  A    between atoms: _339  and  _342
REMARK  137  A    between atoms: _342  and  _343
REMARK  138  A    between atoms: _348  and  _349
REMARK  139  A    between atoms: _351  and  _353
REMARK  140  A    between atoms: _353  and  _354
REMARK  141  A    between atoms: _353  and  _356
REMARK  142  A    between atoms: _356  and  _357
REMARK  143  A    between atoms: _362  and  _364
REMARK  144  A    between atoms: _364  and  _365
REMARK  145  A    between atoms: _364  and  _367
REMARK  146  A    between atoms: _367  and  _368
REMARK  147  A    between atoms: _371  and  _373
REMARK  148  A    between atoms: _373  and  _374
REMARK  149  A    between atoms: _373  and  _376
REMARK  150  A    between atoms: _376  and  _377
REMARK  151  A    between atoms: _382  and  _384
REMARK  152  A    between atoms: _384  and  _385
REMARK  153  A    between atoms: _384  and  _387
REMARK  154  A    between atoms: _387  and  _388
REMARK  155  A    between atoms: _398  and  _400
REMARK  156  A    between atoms: _400  and  _401
REMARK  157  A    between atoms: _400  and  _403
REMARK  158  A    between atoms: _403  and  _404
REMARK  159  A    between atoms: _410  and  _412
REMARK  160  A    between atoms: _412  and  _413
REMARK  161  A    between atoms: _412  and  _415
REMARK  162  A    between atoms: _415  and  _416
REMARK  163  A    between atoms: _419  and  _421
REMARK  164  A    between atoms: _421  and  _422
REMARK  165  A    between atoms: _421  and  _424
REMARK  166  A    between atoms: _424  and  _425
REMARK  167  A    between atoms: _425  and  _426
REMARK  168  A    between atoms: _426  and  _427
REMARK  169  A    between atoms: _436  and  _438
REMARK  170  A    between atoms: _438  and  _439
REMARK  171  A    between atoms: _438  and  _441
REMARK  172  A    between atoms: _441  and  _442
REMARK  173  A    between atoms: _447  and  _449
REMARK  174  A    between atoms: _449  and  _450
REMARK  175  A    between atoms: _449  and  _452
REMARK  176  A    between atoms: _452  and  _453
REMARK  177  A    between atoms: _453  and  _454
REMARK  178  A    between atoms: _454  and  _455
REMARK  179  A    between atoms: _464  and  _466
REMARK  180  A    between atoms: _466  and  _467
REMARK  181  A    between atoms: _470  and  _472
REMARK  182  A    between atoms: _472  and  _473
REMARK  183  A    between atoms: _475  and  _477
REMARK  184  A    between atoms: _477  and  _478
REMARK  185  A    between atoms: _477  and  _480
REMARK  186  A    between atoms: _480  and  _481
REMARK  187  A    between atoms: _491  and  _493
REMARK  188  A    between atoms: _493  and  _494
REMARK  189  A    between atoms: _493  and  _496
REMARK  190  A    between atoms: _496  and  _497
REMARK  191  A    between atoms: _498  and  _500
REMARK  192  A    between atoms: _500  and  _501
REMARK  193  A    between atoms: _504  and  _506
REMARK  194  A    between atoms: _506  and  _507
REMARK  195  A    between atoms: _506  and  _509
REMARK  196  A    between atoms: _509  and  _510
REMARK  197  A    between atoms: _513  and  _515
REMARK  198  A    between atoms: _515  and  _516
REMARK  199  A    between atoms: _515  and  _518
REMARK  200  A    between atoms: _518  and  _519
REMARK  201  A    between atoms: _524  and  _525
REMARK  202  A    between atoms: _527  and  _529
REMARK  203  A    between atoms: _529  and  _530
REMARK  204  A    between atoms: _529  and  _532
REMARK  205  A    between atoms: _532  and  _533
REMARK  206  A    between atoms: _535  and  _537
REMARK  207  A    between atoms: _537  and  _538
REMARK  208  A    between atoms: _537  and  _540
REMARK  209  A    between atoms: _540  and  _541
REMARK  210  A    between atoms: _547  and  _549
REMARK  211  A    between atoms: _549  and  _550
REMARK  212  A    between atoms: _549  and  _552
REMARK  213  A    between atoms: _552  and  _553
REMARK  214  A    between atoms: _556  and  _558
REMARK  215  A    between atoms: _558  and  _559
REMARK  216  A    between atoms: _558  and  _561
REMARK  217  A    between atoms: _561  and  _562
REMARK  218  A    between atoms: _562  and  _563
REMARK  219  A    between atoms: _565  and  _567
REMARK  220  A    between atoms: _567  and  _568
REMARK  221  A    between atoms: _567  and  _570
REMARK  222  A    between atoms: _570  and  _571
REMARK  223  A    between atoms: _573  and  _575
REMARK  224  A    between atoms: _575  and  _576
REMARK  225  A    between atoms: _575  and  _578
REMARK  226  A    between atoms: _578  and  _579
REMARK  227  A    between atoms: _581  and  _583
REMARK  228  A    between atoms: _583  and  _584
REMARK  229  A    between atoms: _583  and  _586
REMARK  230  A    between atoms: _586  and  _587
REMARK  231  A    between atoms: _592  and  _594
REMARK  232  A    between atoms: _594  and  _595
REMARK  233  A    between atoms: _594  and  _597
REMARK  234  A    between atoms: _597  and  _598
REMARK  235  A    between atoms: _603  and  _605
REMARK  236  A    between atoms: _605  and  _606
REMARK  237  A    between atoms: _605  and  _608
REMARK  238  A    between atoms: _608  and  _609
REMARK  239  A    between atoms: _612  and  _614
REMARK  240  A    between atoms: _614  and  _615
REMARK  241  A    between atoms: _618  and  _620
REMARK  242  A    between atoms: _620  and  _621
REMARK  243  A    between atoms: _620  and  _623
REMARK  244  A    between atoms: _623  and  _624
REMARK  245  A    between atoms: _629  and  _631
REMARK  246  A    between atoms: _631  and  _632
REMARK  247  A    between atoms: _631  and  _634
REMARK  248  A    between atoms: _634  and  _635
REMARK  249  A    between atoms: _640  and  _641
REMARK  250  A    between atoms: _643  and  _645
REMARK  251  A    between atoms: _645  and  _646
REMARK  252  A    between atoms: _645  and  _648
REMARK  253  A    between atoms: _648  and  _649
REMARK  254  A    between atoms: _654  and  _655
REMARK  255  A    between atoms: _657  and  _659
REMARK  256  A    between atoms: _659  and  _660
REMARK  257  A    between atoms: _659  and  _662
REMARK  258  A    between atoms: _665  and  _667
REMARK  259  A    between atoms: _667  and  _668
REMARK  260  A    between atoms: _667  and  _670
REMARK  261  A    between atoms: _670  and  _671
REMARK  262  A    between atoms: _676  and  _678
REMARK  263  A    between atoms: _678  and  _679
REMARK  264  A    between atoms: _682  and  _684
REMARK  265  A    between atoms: _684  and  _685
REMARK  266  A    between atoms: _684  and  _687
REMARK  267  A    between atoms: _687  and  _688
REMARK  268  A    between atoms: _688  and  _689
REMARK  269  A    between atoms: _689  and  _690
REMARK  270  A    between atoms: _699  and  _701
REMARK  271  A    between atoms: _701  and  _702
REMARK  272  A    between atoms: _701  and  _704
REMARK  273  A    between atoms: _704  and  _705
REMARK  274  A    between atoms: _708  and  _710
REMARK  275  A    between atoms: _710  and  _711
REMARK  276  A    between atoms: _710  and  _713
REMARK  277  A    between atoms: _713  and  _714
REMARK  278  A    between atoms: _717  and  _719
REMARK  279  A    between atoms: _719  and  _720
REMARK  280  A    between atoms: _719  and  _722
REMARK  281  A    between atoms: _722  and  _723
REMARK                            x       y       z     vdW  Elec       q    Type
REMARK                         _______ _______ _______ _____ _____    ______ ____
ROOT
ATOM      1  O   HOH     1      -4.532  19.705  16.017  0.00  0.00    +0.000 OA
ENDROOT
TORSDOF 0
REMARK  Name = ../refined-set-2016/1qka/1qka_pocket.pdb
REMARK  281 active torsions:
REMARK  status: ('A' for Active; 'I' for Inactive)
REMARK    1  A    between atoms: _1  and  _3
REMARK    2  A    between atoms: _3  and  _4
REMARK    3  A    between atoms: _3  and  _6
REMARK    4  A    between atoms: _6  and  _7
REMARK    5  A    between atoms: _12  and  _14
REMARK    6  A    between atoms: _14  and  _15
REMARK    7  A    between atoms: _17  and  _19
REMARK    8  A    between atoms: _19  and  _20
REMARK    9  A    between atoms: _19  and  _22
REMARK   10  A    between atoms: _22  and  _23
REMARK   11  A    between atoms: _25  and  _27
REMARK   12  A    between atoms: _27  and  _28
REMARK   13  A    between atoms: _27  and  _30
REMARK   14  A    between atoms: _30  and  _31
REMARK   15  A    between atoms: _31  and  _32
REMARK   16  A    between atoms: _37  and  _39
REMARK   17  A    between atoms: _39  and  _40
REMARK   18  A    between atoms: _39  and  _42
REMARK   19  A    between atoms: _42  and  _43
REMARK   20  A    between atoms: _46  and  _48
REMARK   21  A    between atoms: _48  and  _49
REMARK   22  A    between atoms: _48  and  _51
REMARK   23  A    between atoms: _51  and  _52
REMARK   24  A    between atoms: _52  and  _53
REMARK   25  A    between atoms: _56  and  _58
REMARK   26  A    between atoms: _58  and  _59
REMARK   27  A    between atoms: _61  and  _63
REMARK   28  A    between atoms: _63  and  _64
REMARK   29  A    between atoms: _63  and  _66
REMARK   30  A    between atoms: _70  and  _71
REMARK   31  A    between atoms: _76  and  _78
REMARK   32  A    between atoms: _78  and  _79
REMARK   33  A    between atoms: _78  and  _81
REMARK   34  A    between atoms: _81  and  _82
REMARK   35  A    between atoms: _82  and  _83
REMARK   36  A    between atoms: _86  and  _88
REMARK   37  A    between atoms: _88  and  _89
REMARK   38  A    between atoms: _88  and  _91
REMARK   39  A    between atoms: _91  and  _92
REMARK   40  A    between atoms: _94  and  _96
REMARK   41  A    between atoms: _96  and  _97
REMARK   42  A    between atoms: _96  and  _99
REMARK   43  A    between atoms: _99  and  _100
REMARK   44  A    between atoms: _105  and  _107
REMARK   45  A    between atoms: _107  and  _108
REMARK   46  A    between atoms: _107  and  _110
REMARK   47  A    between atoms: _110  and  _111
REMARK   48  A    between atoms: _111  and  _112
REMARK   49  A    between atoms: _112  and  _113
REMARK   50  A    between atoms: _123  and  _124
REMARK   51  A    between atoms: _129  and  _131
REMARK   52  A    between atoms: _131  and  _132
REMARK   53  A    between atoms: _131  and  _134
REMARK   54  A    between atoms: _134  and  _135
REMARK   55  A    between atoms: _140  and  _141
REMARK   56  A    between atoms: _143  and  _145
REMARK   57  A    between atoms: _145  and  _146
REMARK   58  A    between atoms: _145  and  _148
REMARK   59  A    between atoms: _148  and  _149
REMARK   60  A    between atoms: _154  and  _155
REMARK   61  A    between atoms: _157  and  _159
REMARK   62  A    between atoms: _159  and  _160
REMARK   63  A    between atoms: _159  and  _162
REMARK   64  A    between atoms: _162  and  _163
REMARK   65  A    between atoms: _168  and  _169
REMARK   66  A    between atoms: _171  and  _173
REMARK   67  A    between atoms: _173  and  _174
REMARK   68  A    between atoms: _173  and  _176
REMARK   69  A    between atoms: _179  and  _181
REMARK   70  A    between atoms: _181  and  _182
REMARK   71  A    between atoms: _181  and  _184
REMARK   72  A    between atoms: _184  and  _185
REMARK   73  A    between atoms: _191  and  _192
REMARK   74  A    between atoms: _197  and  _199
REMARK   75  A    between atoms: _199  and  _200
REMARK   76  A    between atoms: _199  and  _202
REMARK   77  A    between atoms: _202  and  _203
REMARK   78  A    between atoms: _205  and  _207
REMARK   79  A    between atoms: _207  and  _208
REMARK   80  A    between atoms: _207  and  _210
REMARK   81  A    between atoms: _210  and  _211
REMARK   82  A    between atoms: _211  and  _212
REMARK   83  A    between atoms: _215  and  _217
REMARK   84  A    between atoms: _217  and  _218
REMARK   85  A    between atoms: _217  and  _220
REMARK   86  A    between atoms: _220  and  _221
REMARK   87  A    between atoms: _226  and  _227
REMARK   88  A    between atoms: _229  and  _231
REMARK   89  A    between atoms: _231  and  _232
REMARK   90  A    between atoms: _231  and  _234
REMARK   91  A    between atoms: _234  and  _235
REMARK   92  A    between atoms: _240  and  _242
REMARK   93  A    between atoms: _242  and  _243
REMARK   94  A    between atoms: _242  and  _245
REMARK   95  A    between atoms: _245  and  _246
REMARK   96  A    between atoms: _251  and  _253
REMARK   97  A    between atoms: _253  and  _254
REMARK   98  A    between atoms: _253  and  _256
REMARK   99  A    between atoms: _256  and  _257
REMARK  100  A    between atoms: _257  and  _258
REMARK  101  A    between atoms: _260  and  _262
REMARK  102  A    between atoms: _262  and  _263
REMARK  103  A    between atoms: _262  and  _265
REMARK  104  A    between atoms: _265  and  _266
REMARK  105  A    between atoms: _271  and  _272
REMARK  106  A    between atoms: _274  and  _276
REMARK  107  A    between atoms: _276  and  _277
REMARK  108  A    between atoms: _276  and  _279
REMARK  109  A    between atoms: _279  and  _280
REMARK  110  A    between atoms: _283  and  _285
REMARK  111  A    between atoms: _285  and  _286
REMARK  112  A    between atoms: _285  and  _288
REMARK  113  A    between atoms: _288  and  _289
REMARK  114  A    between atoms: _289  and  _497
REMARK  115  A    between atoms: _290  and  _292
REMARK  116  A    between atoms: _292  and  _293
REMARK  117  A    between atoms: _292  and  _295
REMARK  118  A    between atoms: _295  and  _296
REMARK  119  A    between atoms: _299  and  _301
REMARK  120  A    between atoms: _301  and  _302
REMARK  121  A    between atoms: _301  and  _304
REMARK  122  A    between atoms: _304  and  _305
REMARK  123  A    between atoms: _310  and  _311
REMARK  124  A    between atoms: _313  and  _315
REMARK  125  A    between atoms: _315  and  _316
REMARK  126  A    between atoms: _315  and  _318
REMARK  127  A    between atoms: _318  and  _319
REMARK  128  A    between atoms: _324  and  _325
REMARK  129  A    between atoms: _327  and  _329
REMARK  130  A    between atoms: _329  and  _330
REMARK  131  A    between atoms: _329  and  _332
REMARK  132  A    between atoms: _332  and  _333
REMARK  133  A    between atoms: _333  and  _334
REMARK  134  A    between atoms: _337  and  _339
REMARK  135  A    between atoms: _339  and  _340
REMARK  136  A    between atoms: _339  and  _342
REMARK  137  A    between atoms: _342  and  _343
REMARK  138  A    between atoms: _348  and  _349
REMARK  139  A    between atoms: _351  and  _353
REMARK  140  A    between atoms: _353  and  _354
REMARK  141  A    between atoms: _353  and  _356
REMARK  142  A    between atoms: _356  and  _357
REMARK  143  A    between atoms: _362  and  _364
REMARK  144  A    between atoms: _364  and  _365
REMARK  145  A    between atoms: _364  and  _367
REMARK  146  A    between atoms: _367  and  _368
REMARK  147  A    between atoms: _371  and  _373
REMARK  148  A    between atoms: _373  and  _374
REMARK  149  A    between atoms: _373  and  _376
REMARK  150  A    between atoms: _376  and  _377
REMARK  151  A    between atoms: _382  and  _384
REMARK  152  A    between atoms: _384  and  _385
REMARK  153  A    between atoms: _384  and  _387
REMARK  154  A    between atoms: _387  and  _388
REMARK  155  A    between atoms: _398  and  _400
REMARK  156  A    between atoms: _400  and  _401
REMARK  157  A    between atoms: _400  and  _403
REMARK  158  A    between atoms: _403  and  _404
REMARK  159  A    between atoms: _410  and  _412
REMARK  160  A    between atoms: _412  and  _413
REMARK  161  A    between atoms: _412  and  _415
REMARK  162  A    between atoms: _415  and  _416
REMARK  163  A    between atoms: _419  and  _421
REMARK  164  A    between atoms: _421  and  _422
REMARK  165  A    between atoms: _421  and  _424
REMARK  166  A    between atoms: _424  and  _425
REMARK  167  A    between atoms: _425  and  _426
REMARK  168  A    between atoms: _426  and  _427
REMARK  169  A    between atoms: _436  and  _438
REMARK  170  A    between atoms: _438  and  _439
REMARK  171  A    between atoms: _438  and  _441
REMARK  172  A    between atoms: _441  and  _442
REMARK  173  A    between atoms: _447  and  _449
REMARK  174  A    between atoms: _449  and  _450
REMARK  175  A    between atoms: _449  and  _452
REMARK  176  A    between atoms: _452  and  _453
REMARK  177  A    between atoms: _453  and  _454
REMARK  178  A    between atoms: _454  and  _455
REMARK  179  A    between atoms: _464  and  _466
REMARK  180  A    between atoms: _466  and  _467
REMARK  181  A    between atoms: _470  and  _472
REMARK  182  A    between atoms: _472  and  _473
REMARK  183  A    between atoms: _475  and  _477
REMARK  184  A    between atoms: _477  and  _478
REMARK  185  A    between atoms: _477  and  _480
REMARK  186  A    between atoms: _480  and  _481
REMARK  187  A    between atoms: _491  and  _493
REMARK  188  A    between atoms: _493  and  _494
REMARK  189  A    between atoms: _493  and  _496
REMARK  190  A    between atoms: _496  and  _497
REMARK  191  A    between atoms: _498  and  _500
REMARK  192  A    between atoms: _500  and  _501
REMARK  193  A    between atoms: _504  and  _506
REMARK  194  A    between atoms: _506  and  _507
REMARK  195  A    between atoms: _506  and  _509
REMARK  196  A    between atoms: _509  and  _510
REMARK  197  A    between atoms: _513  and  _515
REMARK  198  A    between atoms: _515  and  _516
REMARK  199  A    between atoms: _515  and  _518
REMARK  200  A    between atoms: _518  and  _519
REMARK  201  A    between atoms: _524  and  _525
REMARK  202  A    between atoms: _527  and  _529
REMARK  203  A    between atoms: _529  and  _530
REMARK  204  A    between atoms: _529  and  _532
REMARK  205  A    between atoms: _532  and  _533
REMARK  206  A    between atoms: _535  and  _537
REMARK  207  A    between atoms: _537  and  _538
REMARK  208  A    between atoms: _537  and  _540
REMARK  209  A    between atoms: _540  and  _541
REMARK  210  A    between atoms: _547  and  _549
REMARK  211  A    between atoms: _549  and  _550
REMARK  212  A    between atoms: _549  and  _552
REMARK  213  A    between atoms: _552  and  _553
REMARK  214  A    between atoms: _556  and  _558
REMARK  215  A    between atoms: _558  and  _559
REMARK  216  A    between atoms: _558  and  _561
REMARK  217  A    between atoms: _561  and  _562
REMARK  218  A    between atoms: _562  and  _563
REMARK  219  A    between atoms: _565  and  _567
REMARK  220  A    between atoms: _567  and  _568
REMARK  221  A    between atoms: _567  and  _570
REMARK  222  A    between atoms: _570  and  _571
REMARK  223  A    between atoms: _573  and  _575
REMARK  224  A    between atoms: _575  and  _576
REMARK  225  A    between atoms: _575  and  _578
REMARK  226  A    between atoms: _578  and  _579
REMARK  227  A    between atoms: _581  and  _583
REMARK  228  A    between atoms: _583  and  _584
REMARK  229  A    between atoms: _583  and  _586
REMARK  230  A    between atoms: _586  and  _587
REMARK  231  A    between atoms: _592  and  _594
REMARK  232  A    between atoms: _594  and  _595
REMARK  233  A    between atoms: _594  and  _597
REMARK  234  A    between atoms: _597  and  _598
REMARK  235  A    between atoms: _603  and  _605
REMARK  236  A    between atoms: _605  and  _606
REMARK  237  A    between atoms: _605  and  _608
REMARK  238  A    between atoms: _608  and  _609
REMARK  239  A    between atoms: _612  and  _614
REMARK  240  A    between atoms: _614  and  _615
REMARK  241  A    between atoms: _618  and  _620
REMARK  242  A    between atoms: _620  and  _621
REMARK  243  A    between atoms: _620  and  _623
REMARK  244  A    between atoms: _623  and  _624
REMARK  245  A    between atoms: _629  and  _631
REMARK  246  A    between atoms: _631  and  _632
REMARK  247  A    between atoms: _631  and  _634
REMARK  248  A    between atoms: _634  and  _635
REMARK  249  A    between atoms: _640  and  _641
REMARK  250  A    between atoms: _643  and  _645
REMARK  251  A    between atoms: _645  and  _646
REMARK  252  A    between atoms: _645  and  _648
REMARK  253  A    between atoms: _648  and  _649
REMARK  254  A    between atoms: _654  and  _655
REMARK  255  A    between atoms: _657  and  _659
REMARK  256  A    between atoms: _659  and  _660
REMARK  257  A    between atoms: _659  and  _662
REMARK  258  A    between atoms: _665  and  _667
REMARK  259  A    between atoms: _667  and  _668
REMARK  260  A    between atoms: _667  and  _670
REMARK  261  A    between atoms: _670  and  _671
REMARK  262  A    between atoms: _676  and  _678
REMARK  263  A    between atoms: _678  and  _679
REMARK  264  A    between atoms: _682  and  _684
REMARK  265  A    between atoms: _684  and  _685
REMARK  266  A    between atoms: _684  and  _687
REMARK  267  A    between atoms: _687  and  _688
REMARK  268  A    between atoms: _688  and  _689
REMARK  269  A    between atoms: _689  and  _690
REMARK  270  A    between atoms: _699  and  _701
REMARK  271  A    between atoms: _701  and  _702
REMARK  272  A    between atoms: _701  and  _704
REMARK  273  A    between atoms: _704  and  _705
REMARK  274  A    between atoms: _708  and  _710
REMARK  275  A    between atoms: _710  and  _711
REMARK  276  A    between atoms: _710  and  _713
REMARK  277  A    between atoms: _713  and  _714
REMARK  278  A    between atoms: _717  and  _719
REMARK  279  A    between atoms: _719  and  _720
REMARK  280  A    between atoms: _719  and  _722
REMARK  281  A    between atoms: _722  and  _723
REMARK                            x       y       z     vdW  Elec       q    Type
REMARK                         _______ _______ _______ _____ _____    ______ ____
ROOT
ATOM      1  O   HOH     1       1.800  22.043  19.042  0.00  0.00    +0.000 OA
ENDROOT
TORSDOF 0
