REMARK  Name = ../refined-set-2016/1v0k/1v0k_pocket.pdb
REMARK  131 active torsions:
REMARK  status: ('A' for Active; 'I' for Inactive)
REMARK    1  A    between atoms: _1  and  _3
REMARK    2  A    between atoms: _3  and  _4
REMARK    3  A    between atoms: _7  and  _9
REMARK    4  A    between atoms: _9  and  _10
REMARK    5  A    between atoms: _13  and  _15
REMARK    6  A    between atoms: _15  and  _16
REMARK    7  A    between atoms: _15  and  _18
REMARK    8  A    between atoms: _18  and  _19
REMARK    9  A    between atoms: _19  and  _20
REMARK   10  A    between atoms: _20  and  _21
REMARK   11  A    between atoms: _30  and  _32
REMARK   12  A    between atoms: _32  and  _33
REMARK   13  A    between atoms: _32  and  _35
REMARK   14  A    between atoms: _35  and  _36
REMARK   15  A    between atoms: _39  and  _41
REMARK   16  A    between atoms: _41  and  _42
REMARK   17  A    between atoms: _45  and  _47
REMARK   18  A    between atoms: _47  and  _48
REMARK   19  A    between atoms: _47  and  _50
REMARK   20  A    between atoms: _50  and  _51
REMARK   21  A    between atoms: _51  and  _52
REMARK   22  A    between atoms: _55  and  _57
REMARK   23  A    between atoms: _57  and  _58
REMARK   24  A    between atoms: _57  and  _60
REMARK   25  A    between atoms: _60  and  _61
REMARK   26  A    between atoms: _66  and  _68
REMARK   27  A    between atoms: _68  and  _69
REMARK   28  A    between atoms: _68  and  _71
REMARK   29  A    between atoms: _71  and  _72
REMARK   30  A    between atoms: _72  and  _73
REMARK   31  A    between atoms: _73  and  _74
REMARK   32  A    between atoms: _74  and  _75
REMARK   33  A    between atoms: _79  and  _81
REMARK   34  A    between atoms: _81  and  _82
REMARK   35  A    between atoms: _81  and  _84
REMARK   36  A    between atoms: _84  and  _85
REMARK   37  A    between atoms: _85  and  _86
REMARK   38  A    between atoms: _86  and  _87
REMARK   39  A    between atoms: _96  and  _98
REMARK   40  A    between atoms: _98  and  _99
REMARK   41  A    between atoms: _98  and  _101
REMARK   42  A    between atoms: _101  and  _102
REMARK   43  A    between atoms: _107  and  _109
REMARK   44  A    between atoms: _109  and  _110
REMARK   45  A    between atoms: _109  and  _112
REMARK   46  A    between atoms: _112  and  _113
REMARK   47  A    between atoms: _116  and  _118
REMARK   48  A    between atoms: _118  and  _119
REMARK   49  A    between atoms: _118  and  _121
REMARK   50  A    between atoms: _121  and  _122
REMARK   51  A    between atoms: _132  and  _134
REMARK   52  A    between atoms: _134  and  _135
REMARK   53  A    between atoms: _134  and  _137
REMARK   54  A    between atoms: _137  and  _138
REMARK   55  A    between atoms: _140  and  _142
REMARK   56  A    between atoms: _142  and  _143
REMARK   57  A    between atoms: _142  and  _145
REMARK   58  A    between atoms: _145  and  _146
REMARK   59  A    between atoms: _146  and  _147
REMARK   60  A    between atoms: _152  and  _154
REMARK   61  A    between atoms: _154  and  _155
REMARK   62  A    between atoms: _154  and  _157
REMARK   63  A    between atoms: _157  and  _158
REMARK   64  A    between atoms: _161  and  _163
REMARK   65  A    between atoms: _163  and  _164
REMARK   66  A    between atoms: _163  and  _166
REMARK   67  A    between atoms: _166  and  _167
REMARK   68  A    between atoms: _172  and  _174
REMARK   69  A    between atoms: _174  and  _175
REMARK   70  A    between atoms: _174  and  _177
REMARK   71  A    between atoms: _177  and  _178
REMARK   72  A    between atoms: _178  and  _179
REMARK   73  A    between atoms: _182  and  _184
REMARK   74  A    between atoms: _184  and  _185
REMARK   75  A    between atoms: _184  and  _187
REMARK   76  A    between atoms: _187  and  _188
REMARK   77  A    between atoms: _193  and  _195
REMARK   78  A    between atoms: _195  and  _196
REMARK   79  A    between atoms: _195  and  _198
REMARK   80  A    between atoms: _198  and  _199
REMARK   81  A    between atoms: _202  and  _204
REMARK   82  A    between atoms: _204  and  _205
REMARK   83  A    between atoms: _204  and  _207
REMARK   84  A    between atoms: _207  and  _208
REMARK   85  A    between atoms: _213  and  _214
REMARK   86  A    between atoms: _216  and  _218
REMARK   87  A    between atoms: _218  and  _219
REMARK   88  A    between atoms: _218  and  _221
REMARK   89  A    between atoms: _221  and  _222
REMARK   90  A    between atoms: _222  and  _223
REMARK   91  A    between atoms: _228  and  _230
REMARK   92  A    between atoms: _230  and  _231
REMARK   93  A    between atoms: _230  and  _233
REMARK   94  A    between atoms: _233  and  _234
REMARK   95  A    between atoms: _239  and  _241
REMARK   96  A    between atoms: _241  and  _242
REMARK   97  A    between atoms: _241  and  _244
REMARK   98  A    between atoms: _244  and  _245
REMARK   99  A    between atoms: _248  and  _250
REMARK  100  A    between atoms: _250  and  _251
REMARK  101  A    between atoms: _250  and  _253
REMARK  102  A    between atoms: _253  and  _254
REMARK  103  A    between atoms: _254  and  _255
REMARK  104  A    between atoms: _258  and  _260
REMARK  105  A    between atoms: _260  and  _261
REMARK  106  A    between atoms: _260  and  _263
REMARK  107  A    between atoms: _263  and  _264
REMARK  108  A    between atoms: _267  and  _269
REMARK  109  A    between atoms: _269  and  _270
REMARK  110  A    between atoms: _269  and  _272
REMARK  111  A    between atoms: _272  and  _273
REMARK  112  A    between atoms: _283  and  _285
REMARK  113  A    between atoms: _285  and  _286
REMARK  114  A    between atoms: _288  and  _290
REMARK  115  A    between atoms: _290  and  _291
REMARK  116  A    between atoms: _290  and  _293
REMARK  117  A    between atoms: _293  and  _294
REMARK  118  A    between atoms: _297  and  _299
REMARK  119  A    between atoms: _299  and  _300
REMARK  120  A    between atoms: _299  and  _302
REMARK  121  A    between atoms: _302  and  _303
REMARK  122  A    between atoms: _305  and  _307
REMARK  123  A    between atoms: _307  and  _308
REMARK  124  A    between atoms: _307  and  _310
REMARK  125  A    between atoms: _310  and  _311
REMARK  126  A    between atoms: _321  and  _323
REMARK  127  A    between atoms: _323  and  _324
REMARK  128  A    between atoms: _323  and  _326
REMARK  129  A    between atoms: _326  and  _327
REMARK  130  A    between atoms: _327  and  _328
REMARK  131  A    between atoms: _328  and  _329
REMARK                            x       y       z     vdW  Elec       q    Type
REMARK                         _______ _______ _______ _____ _____    ______ ____
ROOT
ATOM      1  CA  ALA A   1      13.431   7.355  17.785  0.00  0.00    +0.133 C 
ATOM      2  CB  ALA A   1      12.477   8.297  17.093  0.00  0.00    +0.027 C 
ENDROOT
BRANCH   1   3
ATOM      3  N   ALA A   1      14.507   6.961  16.898  0.00  0.00    -0.239 NA
ATOM      4  H   ALA A   1      14.339   7.005  15.873  0.00  0.00    +0.142 HD
ENDBRANCH   1   3
BRANCH   1   5
ATOM      5  C   ALA A   1      12.696   6.079  18.182  0.00  0.00    +0.224 C 
ATOM      6  O   ALA A   1      12.396   5.249  17.301  0.00  0.00    -0.287 OA
ENDBRANCH   1   5
TORSDOF 2
REMARK  Name = ../refined-set-2016/1v0k/1v0k_pocket.pdb
REMARK  131 active torsions:
REMARK  status: ('A' for Active; 'I' for Inactive)
REMARK    1  A    between atoms: _1  and  _3
REMARK    2  A    between atoms: _3  and  _4
REMARK    3  A    between atoms: _7  and  _9
REMARK    4  A    between atoms: _9  and  _10
REMARK    5  A    between atoms: _13  and  _15
REMARK    6  A    between atoms: _15  and  _16
REMARK    7  A    between atoms: _15  and  _18
REMARK    8  A    between atoms: _18  and  _19
REMARK    9  A    between atoms: _19  and  _20
REMARK   10  A    between atoms: _20  and  _21
REMARK   11  A    between atoms: _30  and  _32
REMARK   12  A    between atoms: _32  and  _33
REMARK   13  A    between atoms: _32  and  _35
REMARK   14  A    between atoms: _35  and  _36
REMARK   15  A    between atoms: _39  and  _41
REMARK   16  A    between atoms: _41  and  _42
REMARK   17  A    between atoms: _45  and  _47
REMARK   18  A    between atoms: _47  and  _48
REMARK   19  A    between atoms: _47  and  _50
REMARK   20  A    between atoms: _50  and  _51
REMARK   21  A    between atoms: _51  and  _52
REMARK   22  A    between atoms: _55  and  _57
REMARK   23  A    between atoms: _57  and  _58
REMARK   24  A    between atoms: _57  and  _60
REMARK   25  A    between atoms: _60  and  _61
REMARK   26  A    between atoms: _66  and  _68
REMARK   27  A    between atoms: _68  and  _69
REMARK   28  A    between atoms: _68  and  _71
REMARK   29  A    between atoms: _71  and  _72
REMARK   30  A    between atoms: _72  and  _73
REMARK   31  A    between atoms: _73  and  _74
REMARK   32  A    between atoms: _74  and  _75
REMARK   33  A    between atoms: _79  and  _81
REMARK   34  A    between atoms: _81  and  _82
REMARK   35  A    between atoms: _81  and  _84
REMARK   36  A    between atoms: _84  and  _85
REMARK   37  A    between atoms: _85  and  _86
REMARK   38  A    between atoms: _86  and  _87
REMARK   39  A    between atoms: _96  and  _98
REMARK   40  A    between atoms: _98  and  _99
REMARK   41  A    between atoms: _98  and  _101
REMARK   42  A    between atoms: _101  and  _102
REMARK   43  A    between atoms: _107  and  _109
REMARK   44  A    between atoms: _109  and  _110
REMARK   45  A    between atoms: _109  and  _112
REMARK   46  A    between atoms: _112  and  _113
REMARK   47  A    between atoms: _116  and  _118
REMARK   48  A    between atoms: _118  and  _119
REMARK   49  A    between atoms: _118  and  _121
REMARK   50  A    between atoms: _121  and  _122
REMARK   51  A    between atoms: _132  and  _134
REMARK   52  A    between atoms: _134  and  _135
REMARK   53  A    between atoms: _134  and  _137
REMARK   54  A    between atoms: _137  and  _138
REMARK   55  A    between atoms: _140  and  _142
REMARK   56  A    between atoms: _142  and  _143
REMARK   57  A    between atoms: _142  and  _145
REMARK   58  A    between atoms: _145  and  _146
REMARK   59  A    between atoms: _146  and  _147
REMARK   60  A    between atoms: _152  and  _154
REMARK   61  A    between atoms: _154  and  _155
REMARK   62  A    between atoms: _154  and  _157
REMARK   63  A    between atoms: _157  and  _158
REMARK   64  A    between atoms: _161  and  _163
REMARK   65  A    between atoms: _163  and  _164
REMARK   66  A    between atoms: _163  and  _166
REMARK   67  A    between atoms: _166  and  _167
REMARK   68  A    between atoms: _172  and  _174
REMARK   69  A    between atoms: _174  and  _175
REMARK   70  A    between atoms: _174  and  _177
REMARK   71  A    between atoms: _177  and  _178
REMARK   72  A    between atoms: _178  and  _179
REMARK   73  A    between atoms: _182  and  _184
REMARK   74  A    between atoms: _184  and  _185
REMARK   75  A    between atoms: _184  and  _187
REMARK   76  A    between atoms: _187  and  _188
REMARK   77  A    between atoms: _193  and  _195
REMARK   78  A    between atoms: _195  and  _196
REMARK   79  A    between atoms: _195  and  _198
REMARK   80  A    between atoms: _198  and  _199
REMARK   81  A    between atoms: _202  and  _204
REMARK   82  A    between atoms: _204  and  _205
REMARK   83  A    between atoms: _204  and  _207
REMARK   84  A    between atoms: _207  and  _208
REMARK   85  A    between atoms: _213  and  _214
REMARK   86  A    between atoms: _216  and  _218
REMARK   87  A    between atoms: _218  and  _219
REMARK   88  A    between atoms: _218  and  _221
REMARK   89  A    between atoms: _221  and  _222
REMARK   90  A    between atoms: _222  and  _223
REMARK   91  A    between atoms: _228  and  _230
REMARK   92  A    between atoms: _230  and  _231
REMARK   93  A    between atoms: _230  and  _233
REMARK   94  A    between atoms: _233  and  _234
REMARK   95  A    between atoms: _239  and  _241
REMARK   96  A    between atoms: _241  and  _242
REMARK   97  A    between atoms: _241  and  _244
REMARK   98  A    between atoms: _244  and  _245
REMARK   99  A    between atoms: _248  and  _250
REMARK  100  A    between atoms: _250  and  _251
REMARK  101  A    between atoms: _250  and  _253
REMARK  102  A    between atoms: _253  and  _254
REMARK  103  A    between atoms: _254  and  _255
REMARK  104  A    between atoms: _258  and  _260
REMARK  105  A    between atoms: _260  and  _261
REMARK  106  A    between atoms: _260  and  _263
REMARK  107  A    between atoms: _263  and  _264
REMARK  108  A    between atoms: _267  and  _269
REMARK  109  A    between atoms: _269  and  _270
REMARK  110  A    between atoms: _269  and  _272
REMARK  111  A    between atoms: _272  and  _273
REMARK  112  A    between atoms: _283  and  _285
REMARK  113  A    between atoms: _285  and  _286
REMARK  114  A    between atoms: _288  and  _290
REMARK  115  A    between atoms: _290  and  _291
REMARK  116  A    between atoms: _290  and  _293
REMARK  117  A    between atoms: _293  and  _294
REMARK  118  A    between atoms: _297  and  _299
REMARK  119  A    between atoms: _299  and  _300
REMARK  120  A    between atoms: _299  and  _302
REMARK  121  A    between atoms: _302  and  _303
REMARK  122  A    between atoms: _305  and  _307
REMARK  123  A    between atoms: _307  and  _308
REMARK  124  A    between atoms: _307  and  _310
REMARK  125  A    between atoms: _310  and  _311
REMARK  126  A    between atoms: _321  and  _323
REMARK  127  A    between atoms: _323  and  _324
REMARK  128  A    between atoms: _323  and  _326
REMARK  129  A    between atoms: _326  and  _327
REMARK  130  A    between atoms: _327  and  _328
REMARK  131  A    between atoms: _328  and  _329
REMARK                            x       y       z     vdW  Elec       q    Type
REMARK                         _______ _______ _______ _____ _____    ______ ____
ROOT
ATOM      1  CA  ALA A   1       7.892   5.023  20.782  0.00  0.00    +0.133 C 
ATOM      2  CB  ALA A   1       6.865   5.158  19.657  0.00  0.00    +0.027 C 
ENDROOT
BRANCH   1   3
ATOM      3  N   ALA A   1       9.186   4.722  20.246  0.00  0.00    -0.239 NA
ATOM      4  H   ALA A   1       9.258   3.947  19.557  0.00  0.00    +0.142 HD
ENDBRANCH   1   3
BRANCH   1   5
ATOM      5  C   ALA A   1       7.429   3.908  21.723  0.00  0.00    +0.224 C 
ATOM      6  O   ALA A   1       7.421   2.736  21.360  0.00  0.00    -0.287 OA
ENDBRANCH   1   5
TORSDOF 2
REMARK  Name = ../refined-set-2016/1v0k/1v0k_pocket.pdb
REMARK  131 active torsions:
REMARK  status: ('A' for Active; 'I' for Inactive)
REMARK    1  A    between atoms: _1  and  _3
REMARK    2  A    between atoms: _3  and  _4
REMARK    3  A    between atoms: _7  and  _9
REMARK    4  A    between atoms: _9  and  _10
REMARK    5  A    between atoms: _13  and  _15
REMARK    6  A    between atoms: _15  and  _16
REMARK    7  A    between atoms: _15  and  _18
REMARK    8  A    between atoms: _18  and  _19
REMARK    9  A    between atoms: _19  and  _20
REMARK   10  A    between atoms: _20  and  _21
REMARK   11  A    between atoms: _30  and  _32
REMARK   12  A    between atoms: _32  and  _33
REMARK   13  A    between atoms: _32  and  _35
REMARK   14  A    between atoms: _35  and  _36
REMARK   15  A    between atoms: _39  and  _41
REMARK   16  A    between atoms: _41  and  _42
REMARK   17  A    between atoms: _45  and  _47
REMARK   18  A    between atoms: _47  and  _48
REMARK   19  A    between atoms: _47  and  _50
REMARK   20  A    between atoms: _50  and  _51
REMARK   21  A    between atoms: _51  and  _52
REMARK   22  A    between atoms: _55  and  _57
REMARK   23  A    between atoms: _57  and  _58
REMARK   24  A    between atoms: _57  and  _60
REMARK   25  A    between atoms: _60  and  _61
REMARK   26  A    between atoms: _66  and  _68
REMARK   27  A    between atoms: _68  and  _69
REMARK   28  A    between atoms: _68  and  _71
REMARK   29  A    between atoms: _71  and  _72
REMARK   30  A    between atoms: _72  and  _73
REMARK   31  A    between atoms: _73  and  _74
REMARK   32  A    between atoms: _74  and  _75
REMARK   33  A    between atoms: _79  and  _81
REMARK   34  A    between atoms: _81  and  _82
REMARK   35  A    between atoms: _81  and  _84
REMARK   36  A    between atoms: _84  and  _85
REMARK   37  A    between atoms: _85  and  _86
REMARK   38  A    between atoms: _86  and  _87
REMARK   39  A    between atoms: _96  and  _98
REMARK   40  A    between atoms: _98  and  _99
REMARK   41  A    between atoms: _98  and  _101
REMARK   42  A    between atoms: _101  and  _102
REMARK   43  A    between atoms: _107  and  _109
REMARK   44  A    between atoms: _109  and  _110
REMARK   45  A    between atoms: _109  and  _112
REMARK   46  A    between atoms: _112  and  _113
REMARK   47  A    between atoms: _116  and  _118
REMARK   48  A    between atoms: _118  and  _119
REMARK   49  A    between atoms: _118  and  _121
REMARK   50  A    between atoms: _121  and  _122
REMARK   51  A    between atoms: _132  and  _134
REMARK   52  A    between atoms: _134  and  _135
REMARK   53  A    between atoms: _134  and  _137
REMARK   54  A    between atoms: _137  and  _138
REMARK   55  A    between atoms: _140  and  _142
REMARK   56  A    between atoms: _142  and  _143
REMARK   57  A    between atoms: _142  and  _145
REMARK   58  A    between atoms: _145  and  _146
REMARK   59  A    between atoms: _146  and  _147
REMARK   60  A    between atoms: _152  and  _154
REMARK   61  A    between atoms: _154  and  _155
REMARK   62  A    between atoms: _154  and  _157
REMARK   63  A    between atoms: _157  and  _158
REMARK   64  A    between atoms: _161  and  _163
REMARK   65  A    between atoms: _163  and  _164
REMARK   66  A    between atoms: _163  and  _166
REMARK   67  A    between atoms: _166  and  _167
REMARK   68  A    between atoms: _172  and  _174
REMARK   69  A    between atoms: _174  and  _175
REMARK   70  A    between atoms: _174  and  _177
REMARK   71  A    between atoms: _177  and  _178
REMARK   72  A    between atoms: _178  and  _179
REMARK   73  A    between atoms: _182  and  _184
REMARK   74  A    between atoms: _184  and  _185
REMARK   75  A    between atoms: _184  and  _187
REMARK   76  A    between atoms: _187  and  _188
REMARK   77  A    between atoms: _193  and  _195
REMARK   78  A    between atoms: _195  and  _196
REMARK   79  A    between atoms: _195  and  _198
REMARK   80  A    between atoms: _198  and  _199
REMARK   81  A    between atoms: _202  and  _204
REMARK   82  A    between atoms: _204  and  _205
REMARK   83  A    between atoms: _204  and  _207
REMARK   84  A    between atoms: _207  and  _208
REMARK   85  A    between atoms: _213  and  _214
REMARK   86  A    between atoms: _216  and  _218
REMARK   87  A    between atoms: _218  and  _219
REMARK   88  A    between atoms: _218  and  _221
REMARK   89  A    between atoms: _221  and  _222
REMARK   90  A    between atoms: _222  and  _223
REMARK   91  A    between atoms: _228  and  _230
REMARK   92  A    between atoms: _230  and  _231
REMARK   93  A    between atoms: _230  and  _233
REMARK   94  A    between atoms: _233  and  _234
REMARK   95  A    between atoms: _239  and  _241
REMARK   96  A    between atoms: _241  and  _242
REMARK   97  A    between atoms: _241  and  _244
REMARK   98  A    between atoms: _244  and  _245
REMARK   99  A    between atoms: _248  and  _250
REMARK  100  A    between atoms: _250  and  _251
REMARK  101  A    between atoms: _250  and  _253
REMARK  102  A    between atoms: _253  and  _254
REMARK  103  A    between atoms: _254  and  _255
REMARK  104  A    between atoms: _258  and  _260
REMARK  105  A    between atoms: _260  and  _261
REMARK  106  A    between atoms: _260  and  _263
REMARK  107  A    between atoms: _263  and  _264
REMARK  108  A    between atoms: _267  and  _269
REMARK  109  A    between atoms: _269  and  _270
REMARK  110  A    between atoms: _269  and  _272
REMARK  111  A    between atoms: _272  and  _273
REMARK  112  A    between atoms: _283  and  _285
REMARK  113  A    between atoms: _285  and  _286
REMARK  114  A    between atoms: _288  and  _290
REMARK  115  A    between atoms: _290  and  _291
REMARK  116  A    between atoms: _290  and  _293
REMARK  117  A    between atoms: _293  and  _294
REMARK  118  A    between atoms: _297  and  _299
REMARK  119  A    between atoms: _299  and  _300
REMARK  120  A    between atoms: _299  and  _302
REMARK  121  A    between atoms: _302  and  _303
REMARK  122  A    between atoms: _305  and  _307
REMARK  123  A    between atoms: _307  and  _308
REMARK  124  A    between atoms: _307  and  _310
REMARK  125  A    between atoms: _310  and  _311
REMARK  126  A    between atoms: _321  and  _323
REMARK  127  A    between atoms: _323  and  _324
REMARK  128  A    between atoms: _323  and  _326
REMARK  129  A    between atoms: _326  and  _327
REMARK  130  A    between atoms: _327  and  _328
REMARK  131  A    between atoms: _328  and  _329
REMARK                            x       y       z     vdW  Elec       q    Type
REMARK                         _______ _______ _______ _____ _____    ______ ____
ROOT
ATOM      1  NE  ARG A   1       5.837   3.770  16.409  0.00  0.00    -0.265 N 
ATOM      2  HE  ARG A   1       6.218   4.660  16.788  0.00  0.00    +0.259 HD
ATOM      3  CZ  ARG A   1       4.853   3.852  15.535  0.00  0.00    +0.342 C 
ATOM      4  NH2 ARG A   1       4.249   5.017  15.304  0.00  0.00    -0.292 N 
ATOM      5 HH21 ARG A   1       4.553   5.871  15.815  0.00  0.00    +0.255 HD
ATOM      6 HH22 ARG A   1       3.474   5.073  14.613  0.00  0.00    +0.255 HD
ATOM      7  NH1 ARG A   1       4.483   2.791  14.838  0.00  0.00    -0.292 N 
ATOM      8 HH11 ARG A   1       4.969   1.882  14.977  0.00  0.00    +0.255 HD
ATOM      9 HH12 ARG A   1       3.706   2.865  14.151  0.00  0.00    +0.255 HD
ENDROOT
BRANCH   1  10
ATOM     10  CD  ARG A   1       6.426   2.536  16.880  0.00  0.00    +0.174 C 
BRANCH  10  11
ATOM     11  CG  ARG A   1       5.524   1.866  17.921  0.00  0.00    +0.045 C 
BRANCH  11  12
ATOM     12  CB  ARG A   1       6.254   0.779  18.702  0.00  0.00    +0.029 C 
BRANCH  12  13
ATOM     13  CA  ARG A   1       5.424   0.125  19.798  0.00  0.00    +0.133 C 
BRANCH  13  14
ATOM     14  N   ARG A   1       4.975   1.118  20.749  0.00  0.00    -0.239 NA
ATOM     15  H   ARG A   1       5.641   1.860  21.045  0.00  0.00    +0.142 HD
ENDBRANCH  13  14
BRANCH  13  16
ATOM     16  C   ARG A   1       6.242  -0.980  20.486  0.00  0.00    +0.224 C 
ATOM     17  O   ARG A   1       6.675  -1.930  19.824  0.00  0.00    -0.287 OA
ENDBRANCH  13  16
ENDBRANCH  12  13
ENDBRANCH  11  12
ENDBRANCH  10  11
ENDBRANCH   1  10
TORSDOF 6
REMARK  Name = ../refined-set-2016/1v0k/1v0k_pocket.pdb
REMARK  131 active torsions:
REMARK  status: ('A' for Active; 'I' for Inactive)
REMARK    1  A    between atoms: _1  and  _3
REMARK    2  A    between atoms: _3  and  _4
REMARK    3  A    between atoms: _7  and  _9
REMARK    4  A    between atoms: _9  and  _10
REMARK    5  A    between atoms: _13  and  _15
REMARK    6  A    between atoms: _15  and  _16
REMARK    7  A    between atoms: _15  and  _18
REMARK    8  A    between atoms: _18  and  _19
REMARK    9  A    between atoms: _19  and  _20
REMARK   10  A    between atoms: _20  and  _21
REMARK   11  A    between atoms: _30  and  _32
REMARK   12  A    between atoms: _32  and  _33
REMARK   13  A    between atoms: _32  and  _35
REMARK   14  A    between atoms: _35  and  _36
REMARK   15  A    between atoms: _39  and  _41
REMARK   16  A    between atoms: _41  and  _42
REMARK   17  A    between atoms: _45  and  _47
REMARK   18  A    between atoms: _47  and  _48
REMARK   19  A    between atoms: _47  and  _50
REMARK   20  A    between atoms: _50  and  _51
REMARK   21  A    between atoms: _51  and  _52
REMARK   22  A    between atoms: _55  and  _57
REMARK   23  A    between atoms: _57  and  _58
REMARK   24  A    between atoms: _57  and  _60
REMARK   25  A    between atoms: _60  and  _61
REMARK   26  A    between atoms: _66  and  _68
REMARK   27  A    between atoms: _68  and  _69
REMARK   28  A    between atoms: _68  and  _71
REMARK   29  A    between atoms: _71  and  _72
REMARK   30  A    between atoms: _72  and  _73
REMARK   31  A    between atoms: _73  and  _74
REMARK   32  A    between atoms: _74  and  _75
REMARK   33  A    between atoms: _79  and  _81
REMARK   34  A    between atoms: _81  and  _82
REMARK   35  A    between atoms: _81  and  _84
REMARK   36  A    between atoms: _84  and  _85
REMARK   37  A    between atoms: _85  and  _86
REMARK   38  A    between atoms: _86  and  _87
REMARK   39  A    between atoms: _96  and  _98
REMARK   40  A    between atoms: _98  and  _99
REMARK   41  A    between atoms: _98  and  _101
REMARK   42  A    between atoms: _101  and  _102
REMARK   43  A    between atoms: _107  and  _109
REMARK   44  A    between atoms: _109  and  _110
REMARK   45  A    between atoms: _109  and  _112
REMARK   46  A    between atoms: _112  and  _113
REMARK   47  A    between atoms: _116  and  _118
REMARK   48  A    between atoms: _118  and  _119
REMARK   49  A    between atoms: _118  and  _121
REMARK   50  A    between atoms: _121  and  _122
REMARK   51  A    between atoms: _132  and  _134
REMARK   52  A    between atoms: _134  and  _135
REMARK   53  A    between atoms: _134  and  _137
REMARK   54  A    between atoms: _137  and  _138
REMARK   55  A    between atoms: _140  and  _142
REMARK   56  A    between atoms: _142  and  _143
REMARK   57  A    between atoms: _142  and  _145
REMARK   58  A    between atoms: _145  and  _146
REMARK   59  A    between atoms: _146  and  _147
REMARK   60  A    between atoms: _152  and  _154
REMARK   61  A    between atoms: _154  and  _155
REMARK   62  A    between atoms: _154  and  _157
REMARK   63  A    between atoms: _157  and  _158
REMARK   64  A    between atoms: _161  and  _163
REMARK   65  A    between atoms: _163  and  _164
REMARK   66  A    between atoms: _163  and  _166
REMARK   67  A    between atoms: _166  and  _167
REMARK   68  A    between atoms: _172  and  _174
REMARK   69  A    between atoms: _174  and  _175
REMARK   70  A    between atoms: _174  and  _177
REMARK   71  A    between atoms: _177  and  _178
REMARK   72  A    between atoms: _178  and  _179
REMARK   73  A    between atoms: _182  and  _184
REMARK   74  A    between atoms: _184  and  _185
REMARK   75  A    between atoms: _184  and  _187
REMARK   76  A    between atoms: _187  and  _188
REMARK   77  A    between atoms: _193  and  _195
REMARK   78  A    between atoms: _195  and  _196
REMARK   79  A    between atoms: _195  and  _198
REMARK   80  A    between atoms: _198  and  _199
REMARK   81  A    between atoms: _202  and  _204
REMARK   82  A    between atoms: _204  and  _205
REMARK   83  A    between atoms: _204  and  _207
REMARK   84  A    between atoms: _207  and  _208
REMARK   85  A    between atoms: _213  and  _214
REMARK   86  A    between atoms: _216  and  _218
REMARK   87  A    between atoms: _218  and  _219
REMARK   88  A    between atoms: _218  and  _221
REMARK   89  A    between atoms: _221  and  _222
REMARK   90  A    between atoms: _222  and  _223
REMARK   91  A    between atoms: _228  and  _230
REMARK   92  A    between atoms: _230  and  _231
REMARK   93  A    between atoms: _230  and  _233
REMARK   94  A    between atoms: _233  and  _234
REMARK   95  A    between atoms: _239  and  _241
REMARK   96  A    between atoms: _241  and  _242
REMARK   97  A    between atoms: _241  and  _244
REMARK   98  A    between atoms: _244  and  _245
REMARK   99  A    between atoms: _248  and  _250
REMARK  100  A    between atoms: _250  and  _251
REMARK  101  A    between atoms: _250  and  _253
REMARK  102  A    between atoms: _253  and  _254
REMARK  103  A    between atoms: _254  and  _255
REMARK  104  A    between atoms: _258  and  _260
REMARK  105  A    between atoms: _260  and  _261
REMARK  106  A    between atoms: _260  and  _263
REMARK  107  A    between atoms: _263  and  _264
REMARK  108  A    between atoms: _267  and  _269
REMARK  109  A    between atoms: _269  and  _270
REMARK  110  A    between atoms: _269  and  _272
REMARK  111  A    between atoms: _272  and  _273
REMARK  112  A    between atoms: _283  and  _285
REMARK  113  A    between atoms: _285  and  _286
REMARK  114  A    between atoms: _288  and  _290
REMARK  115  A    between atoms: _290  and  _291
REMARK  116  A    between atoms: _290  and  _293
REMARK  117  A    between atoms: _293  and  _294
REMARK  118  A    between atoms: _297  and  _299
REMARK  119  A    between atoms: _299  and  _300
REMARK  120  A    between atoms: _299  and  _302
REMARK  121  A    between atoms: _302  and  _303
REMARK  122  A    between atoms: _305  and  _307
REMARK  123  A    between atoms: _307  and  _308
REMARK  124  A    between atoms: _307  and  _310
REMARK  125  A    between atoms: _310  and  _311
REMARK  126  A    between atoms: _321  and  _323
REMARK  127  A    between atoms: _323  and  _324
REMARK  128  A    between atoms: _323  and  _326
REMARK  129  A    between atoms: _326  and  _327
REMARK  130  A    between atoms: _327  and  _328
REMARK  131  A    between atoms: _328  and  _329
REMARK                            x       y       z     vdW  Elec       q    Type
REMARK                         _______ _______ _______ _____ _____    ______ ____
ROOT
ATOM      1  CA  GLU A   3       9.746  10.046  20.177  0.00  0.00    +0.149 C 
ENDROOT
BRANCH   1   4
ATOM      2  C   ALA A   2      11.325   9.857  21.988  0.00  0.00    +0.241 C 
ATOM      3  O   ALA A   2      11.529  11.068  21.941  0.00  0.00    -0.273 OA
ATOM      4  N   GLU A   3      10.416   9.269  21.210  0.00  0.00    -0.297 N 
ATOM      5  H   GLU A   3      10.187   8.263  21.340  0.00  0.00    +0.150 HD
BRANCH   2   6
ATOM      6  CA  ALA A   2      12.065   8.982  22.994  0.00  0.00    +0.149 C 
ATOM      7  CB  ALA A   2      11.625   9.299  24.425  0.00  0.00    +0.031 C 
BRANCH   6   9
ATOM      8  C   THR A   1      14.112   8.798  21.740  0.00  0.00    +0.241 C 
ATOM      9  N   ALA A   2      13.488   9.227  22.839  0.00  0.00    -0.297 N 
ATOM     10  H   ALA A   2      14.016   9.733  23.578  0.00  0.00    +0.150 HD
ATOM     11  O   THR A   1      13.580   8.072  20.907  0.00  0.00    -0.274 OA
BRANCH   8  12
ATOM     12  CA  THR A   1      15.553   9.215  21.500  0.00  0.00    +0.172 C 
BRANCH  12  13
ATOM     13  N   THR A   1      16.292   8.017  21.103  0.00  0.00    -0.236 NA
ATOM     14  H   THR A   1      16.035   7.560  20.205  0.00  0.00    +0.142 HD
ENDBRANCH  12  13
BRANCH  12  15
ATOM     15  CB  THR A   1      15.608  10.284  20.398  0.00  0.00    +0.135 C 
ATOM     16  CG2 THR A   1      14.947  11.583  20.901  0.00  0.00    +0.034 C 
BRANCH  15  17
ATOM     17  OG1 THR A   1      16.949  10.519  20.043  0.00  0.00    -0.383 OA
ATOM     18  HG1 THR A   1      16.985  11.208  19.333  0.00  0.00    +0.210 HD
ENDBRANCH  15  17
ENDBRANCH  12  15
ENDBRANCH   8  12
ENDBRANCH   6   9
ENDBRANCH   2   6
ENDBRANCH   1   4
BRANCH   1  19
ATOM     19  C   GLU A   3       8.829  11.121  20.794  0.00  0.00    +0.241 C 
ATOM     20  N   ASN A   4       8.182  10.792  21.912  0.00  0.00    -0.298 N 
ATOM     21  H   ASN A   4       8.385   9.873  22.355  0.00  0.00    +0.150 HD
ATOM     22  O   GLU A   3       8.733  12.214  20.256  0.00  0.00    -0.273 OA
BRANCH  20  23
ATOM     23  CA  ASN A   4       7.192  11.678  22.543  0.00  0.00    +0.146 C 
BRANCH  23  24
ATOM     24  C   ASN A   4       7.318  11.793  24.059  0.00  0.00    +0.227 C 
ATOM     25  O   ASN A   4       6.913  12.806  24.650  0.00  0.00    -0.286 OA
ENDBRANCH  23  24
BRANCH  23  26
ATOM     26  CB  ASN A   4       5.766  11.208  22.225  0.00  0.00    +0.112 C 
BRANCH  26  27
ATOM     27  CG  ASN A   4       5.489  11.209  20.754  0.00  0.00    +0.222 C 
ATOM     28  ND2 ASN A   4       5.180  10.034  20.201  0.00  0.00    -0.329 N 
ATOM     29 HD21 ASN A   4       5.124   9.180  20.792  0.00  0.00    +0.145 HD
ATOM     30 HD22 ASN A   4       4.995   9.973  19.179  0.00  0.00    +0.145 HD
ATOM     31  OD1 ASN A   4       5.570  12.251  20.110  0.00  0.00    -0.275 OA
ENDBRANCH  26  27
ENDBRANCH  23  26
ENDBRANCH  20  23
ENDBRANCH   1  19
BRANCH   1  32
ATOM     32  CB  GLU A   3       8.907   9.121  19.277  0.00  0.00    +0.041 C 
BRANCH  32  33
ATOM     33  CG  GLU A   3       8.432   9.841  18.029  0.00  0.00    +0.116 C 
BRANCH  33  34
ATOM     34  CD  GLU A   3       7.697   8.951  17.056  0.00  0.00    +0.365 C 
ATOM     35  OE2 GLU A   3       7.427   7.779  17.396  0.00  0.00    -0.246 OA
ATOM     36  OE1 GLU A   3       7.404   9.429  15.928  0.00  0.00    -0.246 OA
ENDBRANCH  33  34
ENDBRANCH  32  33
ENDBRANCH   1  32
TORSDOF 15
REMARK  Name = ../refined-set-2016/1v0k/1v0k_pocket.pdb
REMARK  131 active torsions:
REMARK  status: ('A' for Active; 'I' for Inactive)
REMARK    1  A    between atoms: _1  and  _3
REMARK    2  A    between atoms: _3  and  _4
REMARK    3  A    between atoms: _7  and  _9
REMARK    4  A    between atoms: _9  and  _10
REMARK    5  A    between atoms: _13  and  _15
REMARK    6  A    between atoms: _15  and  _16
REMARK    7  A    between atoms: _15  and  _18
REMARK    8  A    between atoms: _18  and  _19
REMARK    9  A    between atoms: _19  and  _20
REMARK   10  A    between atoms: _20  and  _21
REMARK   11  A    between atoms: _30  and  _32
REMARK   12  A    between atoms: _32  and  _33
REMARK   13  A    between atoms: _32  and  _35
REMARK   14  A    between atoms: _35  and  _36
REMARK   15  A    between atoms: _39  and  _41
REMARK   16  A    between atoms: _41  and  _42
REMARK   17  A    between atoms: _45  and  _47
REMARK   18  A    between atoms: _47  and  _48
REMARK   19  A    between atoms: _47  and  _50
REMARK   20  A    between atoms: _50  and  _51
REMARK   21  A    between atoms: _51  and  _52
REMARK   22  A    between atoms: _55  and  _57
REMARK   23  A    between atoms: _57  and  _58
REMARK   24  A    between atoms: _57  and  _60
REMARK   25  A    between atoms: _60  and  _61
REMARK   26  A    between atoms: _66  and  _68
REMARK   27  A    between atoms: _68  and  _69
REMARK   28  A    between atoms: _68  and  _71
REMARK   29  A    between atoms: _71  and  _72
REMARK   30  A    between atoms: _72  and  _73
REMARK   31  A    between atoms: _73  and  _74
REMARK   32  A    between atoms: _74  and  _75
REMARK   33  A    between atoms: _79  and  _81
REMARK   34  A    between atoms: _81  and  _82
REMARK   35  A    between atoms: _81  and  _84
REMARK   36  A    between atoms: _84  and  _85
REMARK   37  A    between atoms: _85  and  _86
REMARK   38  A    between atoms: _86  and  _87
REMARK   39  A    between atoms: _96  and  _98
REMARK   40  A    between atoms: _98  and  _99
REMARK   41  A    between atoms: _98  and  _101
REMARK   42  A    between atoms: _101  and  _102
REMARK   43  A    between atoms: _107  and  _109
REMARK   44  A    between atoms: _109  and  _110
REMARK   45  A    between atoms: _109  and  _112
REMARK   46  A    between atoms: _112  and  _113
REMARK   47  A    between atoms: _116  and  _118
REMARK   48  A    between atoms: _118  and  _119
REMARK   49  A    between atoms: _118  and  _121
REMARK   50  A    between atoms: _121  and  _122
REMARK   51  A    between atoms: _132  and  _134
REMARK   52  A    between atoms: _134  and  _135
REMARK   53  A    between atoms: _134  and  _137
REMARK   54  A    between atoms: _137  and  _138
REMARK   55  A    between atoms: _140  and  _142
REMARK   56  A    between atoms: _142  and  _143
REMARK   57  A    between atoms: _142  and  _145
REMARK   58  A    between atoms: _145  and  _146
REMARK   59  A    between atoms: _146  and  _147
REMARK   60  A    between atoms: _152  and  _154
REMARK   61  A    between atoms: _154  and  _155
REMARK   62  A    between atoms: _154  and  _157
REMARK   63  A    between atoms: _157  and  _158
REMARK   64  A    between atoms: _161  and  _163
REMARK   65  A    between atoms: _163  and  _164
REMARK   66  A    between atoms: _163  and  _166
REMARK   67  A    between atoms: _166  and  _167
REMARK   68  A    between atoms: _172  and  _174
REMARK   69  A    between atoms: _174  and  _175
REMARK   70  A    between atoms: _174  and  _177
REMARK   71  A    between atoms: _177  and  _178
REMARK   72  A    between atoms: _178  and  _179
REMARK   73  A    between atoms: _182  and  _184
REMARK   74  A    between atoms: _184  and  _185
REMARK   75  A    between atoms: _184  and  _187
REMARK   76  A    between atoms: _187  and  _188
REMARK   77  A    between atoms: _193  and  _195
REMARK   78  A    between atoms: _195  and  _196
REMARK   79  A    between atoms: _195  and  _198
REMARK   80  A    between atoms: _198  and  _199
REMARK   81  A    between atoms: _202  and  _204
REMARK   82  A    between atoms: _204  and  _205
REMARK   83  A    between atoms: _204  and  _207
REMARK   84  A    between atoms: _207  and  _208
REMARK   85  A    between atoms: _213  and  _214
REMARK   86  A    between atoms: _216  and  _218
REMARK   87  A    between atoms: _218  and  _219
REMARK   88  A    between atoms: _218  and  _221
REMARK   89  A    between atoms: _221  and  _222
REMARK   90  A    between atoms: _222  and  _223
REMARK   91  A    between atoms: _228  and  _230
REMARK   92  A    between atoms: _230  and  _231
REMARK   93  A    between atoms: _230  and  _233
REMARK   94  A    between atoms: _233  and  _234
REMARK   95  A    between atoms: _239  and  _241
REMARK   96  A    between atoms: _241  and  _242
REMARK   97  A    between atoms: _241  and  _244
REMARK   98  A    between atoms: _244  and  _245
REMARK   99  A    between atoms: _248  and  _250
REMARK  100  A    between atoms: _250  and  _251
REMARK  101  A    between atoms: _250  and  _253
REMARK  102  A    between atoms: _253  and  _254
REMARK  103  A    between atoms: _254  and  _255
REMARK  104  A    between atoms: _258  and  _260
REMARK  105  A    between atoms: _260  and  _261
REMARK  106  A    between atoms: _260  and  _263
REMARK  107  A    between atoms: _263  and  _264
REMARK  108  A    between atoms: _267  and  _269
REMARK  109  A    between atoms: _269  and  _270
REMARK  110  A    between atoms: _269  and  _272
REMARK  111  A    between atoms: _272  and  _273
REMARK  112  A    between atoms: _283  and  _285
REMARK  113  A    between atoms: _285  and  _286
REMARK  114  A    between atoms: _288  and  _290
REMARK  115  A    between atoms: _290  and  _291
REMARK  116  A    between atoms: _290  and  _293
REMARK  117  A    between atoms: _293  and  _294
REMARK  118  A    between atoms: _297  and  _299
REMARK  119  A    between atoms: _299  and  _300
REMARK  120  A    between atoms: _299  and  _302
REMARK  121  A    between atoms: _302  and  _303
REMARK  122  A    between atoms: _305  and  _307
REMARK  123  A    between atoms: _307  and  _308
REMARK  124  A    between atoms: _307  and  _310
REMARK  125  A    between atoms: _310  and  _311
REMARK  126  A    between atoms: _321  and  _323
REMARK  127  A    between atoms: _323  and  _324
REMARK  128  A    between atoms: _323  and  _326
REMARK  129  A    between atoms: _326  and  _327
REMARK  130  A    between atoms: _327  and  _328
REMARK  131  A    between atoms: _328  and  _329
REMARK                            x       y       z     vdW  Elec       q    Type
REMARK                         _______ _______ _______ _____ _____    ______ ____
ROOT
ATOM      1  CG  LYS A   1       8.375  15.773  23.454  0.00  0.00    -0.000 C 
ENDROOT
BRANCH   1   2
ATOM      2  CB  LYS A   1       7.505  16.065  24.682  0.00  0.00    +0.025 C 
BRANCH   2   3
ATOM      3  CA  LYS A   1       8.358  16.067  25.937  0.00  0.00    +0.133 C 
BRANCH   3   4
ATOM      4  N   LYS A   1       8.806  14.712  26.222  0.00  0.00    -0.239 NA
ATOM      5  H   LYS A   1       8.280  13.909  25.823  0.00  0.00    +0.142 HD
ENDBRANCH   3   4
BRANCH   3   6
ATOM      6  C   LYS A   1       7.669  16.659  27.168  0.00  0.00    +0.224 C 
ATOM      7  O   LYS A   1       7.442  15.974  28.181  0.00  0.00    -0.287 OA
ENDBRANCH   3   6
ENDBRANCH   2   3
ENDBRANCH   1   2
BRANCH   1   8
ATOM      8  CD  LYS A   1       7.560  15.535  22.204  0.00  0.00    -0.024 C 
BRANCH   8   9
ATOM      9  CE  LYS A   1       8.412  15.274  20.985  0.00  0.00    -0.086 C 
BRANCH   9  10
ATOM     10  NZ  LYS A   1       7.613  14.959  19.747  0.00  0.00    +0.380 N 
ATOM     11  HZ1 LYS A   1       7.039  14.108  19.914  0.00  0.00    -0.089 HD
ATOM     12  HZ2 LYS A   1       6.989  15.761  19.525  0.00  0.00    -0.089 HD
ATOM     13  HZ3 LYS A   1       8.261  14.791  18.951  0.00  0.00    -0.089 HD
ENDBRANCH   9  10
ENDBRANCH   8   9
ENDBRANCH   1   8
TORSDOF 7
REMARK  Name = ../refined-set-2016/1v0k/1v0k_pocket.pdb
REMARK  131 active torsions:
REMARK  status: ('A' for Active; 'I' for Inactive)
REMARK    1  A    between atoms: _1  and  _3
REMARK    2  A    between atoms: _3  and  _4
REMARK    3  A    between atoms: _7  and  _9
REMARK    4  A    between atoms: _9  and  _10
REMARK    5  A    between atoms: _13  and  _15
REMARK    6  A    between atoms: _15  and  _16
REMARK    7  A    between atoms: _15  and  _18
REMARK    8  A    between atoms: _18  and  _19
REMARK    9  A    between atoms: _19  and  _20
REMARK   10  A    between atoms: _20  and  _21
REMARK   11  A    between atoms: _30  and  _32
REMARK   12  A    between atoms: _32  and  _33
REMARK   13  A    between atoms: _32  and  _35
REMARK   14  A    between atoms: _35  and  _36
REMARK   15  A    between atoms: _39  and  _41
REMARK   16  A    between atoms: _41  and  _42
REMARK   17  A    between atoms: _45  and  _47
REMARK   18  A    between atoms: _47  and  _48
REMARK   19  A    between atoms: _47  and  _50
REMARK   20  A    between atoms: _50  and  _51
REMARK   21  A    between atoms: _51  and  _52
REMARK   22  A    between atoms: _55  and  _57
REMARK   23  A    between atoms: _57  and  _58
REMARK   24  A    between atoms: _57  and  _60
REMARK   25  A    between atoms: _60  and  _61
REMARK   26  A    between atoms: _66  and  _68
REMARK   27  A    between atoms: _68  and  _69
REMARK   28  A    between atoms: _68  and  _71
REMARK   29  A    between atoms: _71  and  _72
REMARK   30  A    between atoms: _72  and  _73
REMARK   31  A    between atoms: _73  and  _74
REMARK   32  A    between atoms: _74  and  _75
REMARK   33  A    between atoms: _79  and  _81
REMARK   34  A    between atoms: _81  and  _82
REMARK   35  A    between atoms: _81  and  _84
REMARK   36  A    between atoms: _84  and  _85
REMARK   37  A    between atoms: _85  and  _86
REMARK   38  A    between atoms: _86  and  _87
REMARK   39  A    between atoms: _96  and  _98
REMARK   40  A    between atoms: _98  and  _99
REMARK   41  A    between atoms: _98  and  _101
REMARK   42  A    between atoms: _101  and  _102
REMARK   43  A    between atoms: _107  and  _109
REMARK   44  A    between atoms: _109  and  _110
REMARK   45  A    between atoms: _109  and  _112
REMARK   46  A    between atoms: _112  and  _113
REMARK   47  A    between atoms: _116  and  _118
REMARK   48  A    between atoms: _118  and  _119
REMARK   49  A    between atoms: _118  and  _121
REMARK   50  A    between atoms: _121  and  _122
REMARK   51  A    between atoms: _132  and  _134
REMARK   52  A    between atoms: _134  and  _135
REMARK   53  A    between atoms: _134  and  _137
REMARK   54  A    between atoms: _137  and  _138
REMARK   55  A    between atoms: _140  and  _142
REMARK   56  A    between atoms: _142  and  _143
REMARK   57  A    between atoms: _142  and  _145
REMARK   58  A    between atoms: _145  and  _146
REMARK   59  A    between atoms: _146  and  _147
REMARK   60  A    between atoms: _152  and  _154
REMARK   61  A    between atoms: _154  and  _155
REMARK   62  A    between atoms: _154  and  _157
REMARK   63  A    between atoms: _157  and  _158
REMARK   64  A    between atoms: _161  and  _163
REMARK   65  A    between atoms: _163  and  _164
REMARK   66  A    between atoms: _163  and  _166
REMARK   67  A    between atoms: _166  and  _167
REMARK   68  A    between atoms: _172  and  _174
REMARK   69  A    between atoms: _174  and  _175
REMARK   70  A    between atoms: _174  and  _177
REMARK   71  A    between atoms: _177  and  _178
REMARK   72  A    between atoms: _178  and  _179
REMARK   73  A    between atoms: _182  and  _184
REMARK   74  A    between atoms: _184  and  _185
REMARK   75  A    between atoms: _184  and  _187
REMARK   76  A    between atoms: _187  and  _188
REMARK   77  A    between atoms: _193  and  _195
REMARK   78  A    between atoms: _195  and  _196
REMARK   79  A    between atoms: _195  and  _198
REMARK   80  A    between atoms: _198  and  _199
REMARK   81  A    between atoms: _202  and  _204
REMARK   82  A    between atoms: _204  and  _205
REMARK   83  A    between atoms: _204  and  _207
REMARK   84  A    between atoms: _207  and  _208
REMARK   85  A    between atoms: _213  and  _214
REMARK   86  A    between atoms: _216  and  _218
REMARK   87  A    between atoms: _218  and  _219
REMARK   88  A    between atoms: _218  and  _221
REMARK   89  A    between atoms: _221  and  _222
REMARK   90  A    between atoms: _222  and  _223
REMARK   91  A    between atoms: _228  and  _230
REMARK   92  A    between atoms: _230  and  _231
REMARK   93  A    between atoms: _230  and  _233
REMARK   94  A    between atoms: _233  and  _234
REMARK   95  A    between atoms: _239  and  _241
REMARK   96  A    between atoms: _241  and  _242
REMARK   97  A    between atoms: _241  and  _244
REMARK   98  A    between atoms: _244  and  _245
REMARK   99  A    between atoms: _248  and  _250
REMARK  100  A    between atoms: _250  and  _251
REMARK  101  A    between atoms: _250  and  _253
REMARK  102  A    between atoms: _253  and  _254
REMARK  103  A    between atoms: _254  and  _255
REMARK  104  A    between atoms: _258  and  _260
REMARK  105  A    between atoms: _260  and  _261
REMARK  106  A    between atoms: _260  and  _263
REMARK  107  A    between atoms: _263  and  _264
REMARK  108  A    between atoms: _267  and  _269
REMARK  109  A    between atoms: _269  and  _270
REMARK  110  A    between atoms: _269  and  _272
REMARK  111  A    between atoms: _272  and  _273
REMARK  112  A    between atoms: _283  and  _285
REMARK  113  A    between atoms: _285  and  _286
REMARK  114  A    between atoms: _288  and  _290
REMARK  115  A    between atoms: _290  and  _291
REMARK  116  A    between atoms: _290  and  _293
REMARK  117  A    between atoms: _293  and  _294
REMARK  118  A    between atoms: _297  and  _299
REMARK  119  A    between atoms: _299  and  _300
REMARK  120  A    between atoms: _299  and  _302
REMARK  121  A    between atoms: _302  and  _303
REMARK  122  A    between atoms: _305  and  _307
REMARK  123  A    between atoms: _307  and  _308
REMARK  124  A    between atoms: _307  and  _310
REMARK  125  A    between atoms: _310  and  _311
REMARK  126  A    between atoms: _321  and  _323
REMARK  127  A    between atoms: _323  and  _324
REMARK  128  A    between atoms: _323  and  _326
REMARK  129  A    between atoms: _326  and  _327
REMARK  130  A    between atoms: _327  and  _328
REMARK  131  A    between atoms: _328  and  _329
REMARK                            x       y       z     vdW  Elec       q    Type
REMARK                         _______ _______ _______ _____ _____    ______ ____
ROOT
ATOM      1  NE  ARG A   1      20.824  13.520  20.189  0.00  0.00    -0.265 N 
ATOM      2  CZ  ARG A   1      20.011  14.578  20.266  0.00  0.00    +0.342 C 
ATOM      3  NH2 ARG A   1      20.567  15.764  20.533  0.00  0.00    -0.292 N 
ATOM      4 HH21 ARG A   1      21.595  15.837  20.672  0.00  0.00    +0.255 HD
ATOM      5 HH22 ARG A   1      19.971  16.614  20.602  0.00  0.00    +0.255 HD
ATOM      6  NH1 ARG A   1      18.707  14.493  20.073  0.00  0.00    -0.292 N 
ATOM      7 HH11 ARG A   1      18.114  15.345  20.143  0.00  0.00    +0.255 HD
ATOM      8 HH12 ARG A   1      18.273  13.574  19.851  0.00  0.00    +0.255 HD
ATOM      9  HE  ARG A   1      21.847  13.709  20.178  0.00  0.00    +0.259 HD
ENDROOT
BRANCH   1  10
ATOM     10  CD  ARG A   1      20.405  12.115  20.118  0.00  0.00    +0.174 C 
BRANCH  10  11
ATOM     11  CG  ARG A   1      20.377  11.508  21.534  0.00  0.00    +0.045 C 
BRANCH  11  12
ATOM     12  CB  ARG A   1      19.246  11.978  22.366  0.00  0.00    +0.029 C 
BRANCH  12  13
ATOM     13  CA  ARG A   1      19.281  11.563  23.863  0.00  0.00    +0.133 C 
BRANCH  13  14
ATOM     14  N   ARG A   1      19.418  10.105  24.040  0.00  0.00    -0.239 NA
ATOM     15  H   ARG A   1      18.995   9.478  23.326  0.00  0.00    +0.142 HD
ENDBRANCH  13  14
BRANCH  13  16
ATOM     16  C   ARG A   1      17.955  11.970  24.448  0.00  0.00    +0.224 C 
ATOM     17  O   ARG A   1      16.923  11.413  24.094  0.00  0.00    -0.287 OA
ENDBRANCH  13  16
ENDBRANCH  12  13
ENDBRANCH  11  12
ENDBRANCH  10  11
ENDBRANCH   1  10
TORSDOF 6
REMARK  Name = ../refined-set-2016/1v0k/1v0k_pocket.pdb
REMARK  131 active torsions:
REMARK  status: ('A' for Active; 'I' for Inactive)
REMARK    1  A    between atoms: _1  and  _3
REMARK    2  A    between atoms: _3  and  _4
REMARK    3  A    between atoms: _7  and  _9
REMARK    4  A    between atoms: _9  and  _10
REMARK    5  A    between atoms: _13  and  _15
REMARK    6  A    between atoms: _15  and  _16
REMARK    7  A    between atoms: _15  and  _18
REMARK    8  A    between atoms: _18  and  _19
REMARK    9  A    between atoms: _19  and  _20
REMARK   10  A    between atoms: _20  and  _21
REMARK   11  A    between atoms: _30  and  _32
REMARK   12  A    between atoms: _32  and  _33
REMARK   13  A    between atoms: _32  and  _35
REMARK   14  A    between atoms: _35  and  _36
REMARK   15  A    between atoms: _39  and  _41
REMARK   16  A    between atoms: _41  and  _42
REMARK   17  A    between atoms: _45  and  _47
REMARK   18  A    between atoms: _47  and  _48
REMARK   19  A    between atoms: _47  and  _50
REMARK   20  A    between atoms: _50  and  _51
REMARK   21  A    between atoms: _51  and  _52
REMARK   22  A    between atoms: _55  and  _57
REMARK   23  A    between atoms: _57  and  _58
REMARK   24  A    between atoms: _57  and  _60
REMARK   25  A    between atoms: _60  and  _61
REMARK   26  A    between atoms: _66  and  _68
REMARK   27  A    between atoms: _68  and  _69
REMARK   28  A    between atoms: _68  and  _71
REMARK   29  A    between atoms: _71  and  _72
REMARK   30  A    between atoms: _72  and  _73
REMARK   31  A    between atoms: _73  and  _74
REMARK   32  A    between atoms: _74  and  _75
REMARK   33  A    between atoms: _79  and  _81
REMARK   34  A    between atoms: _81  and  _82
REMARK   35  A    between atoms: _81  and  _84
REMARK   36  A    between atoms: _84  and  _85
REMARK   37  A    between atoms: _85  and  _86
REMARK   38  A    between atoms: _86  and  _87
REMARK   39  A    between atoms: _96  and  _98
REMARK   40  A    between atoms: _98  and  _99
REMARK   41  A    between atoms: _98  and  _101
REMARK   42  A    between atoms: _101  and  _102
REMARK   43  A    between atoms: _107  and  _109
REMARK   44  A    between atoms: _109  and  _110
REMARK   45  A    between atoms: _109  and  _112
REMARK   46  A    between atoms: _112  and  _113
REMARK   47  A    between atoms: _116  and  _118
REMARK   48  A    between atoms: _118  and  _119
REMARK   49  A    between atoms: _118  and  _121
REMARK   50  A    between atoms: _121  and  _122
REMARK   51  A    between atoms: _132  and  _134
REMARK   52  A    between atoms: _134  and  _135
REMARK   53  A    between atoms: _134  and  _137
REMARK   54  A    between atoms: _137  and  _138
REMARK   55  A    between atoms: _140  and  _142
REMARK   56  A    between atoms: _142  and  _143
REMARK   57  A    between atoms: _142  and  _145
REMARK   58  A    between atoms: _145  and  _146
REMARK   59  A    between atoms: _146  and  _147
REMARK   60  A    between atoms: _152  and  _154
REMARK   61  A    between atoms: _154  and  _155
REMARK   62  A    between atoms: _154  and  _157
REMARK   63  A    between atoms: _157  and  _158
REMARK   64  A    between atoms: _161  and  _163
REMARK   65  A    between atoms: _163  and  _164
REMARK   66  A    between atoms: _163  and  _166
REMARK   67  A    between atoms: _166  and  _167
REMARK   68  A    between atoms: _172  and  _174
REMARK   69  A    between atoms: _174  and  _175
REMARK   70  A    between atoms: _174  and  _177
REMARK   71  A    between atoms: _177  and  _178
REMARK   72  A    between atoms: _178  and  _179
REMARK   73  A    between atoms: _182  and  _184
REMARK   74  A    between atoms: _184  and  _185
REMARK   75  A    between atoms: _184  and  _187
REMARK   76  A    between atoms: _187  and  _188
REMARK   77  A    between atoms: _193  and  _195
REMARK   78  A    between atoms: _195  and  _196
REMARK   79  A    between atoms: _195  and  _198
REMARK   80  A    between atoms: _198  and  _199
REMARK   81  A    between atoms: _202  and  _204
REMARK   82  A    between atoms: _204  and  _205
REMARK   83  A    between atoms: _204  and  _207
REMARK   84  A    between atoms: _207  and  _208
REMARK   85  A    between atoms: _213  and  _214
REMARK   86  A    between atoms: _216  and  _218
REMARK   87  A    between atoms: _218  and  _219
REMARK   88  A    between atoms: _218  and  _221
REMARK   89  A    between atoms: _221  and  _222
REMARK   90  A    between atoms: _222  and  _223
REMARK   91  A    between atoms: _228  and  _230
REMARK   92  A    between atoms: _230  and  _231
REMARK   93  A    between atoms: _230  and  _233
REMARK   94  A    between atoms: _233  and  _234
REMARK   95  A    between atoms: _239  and  _241
REMARK   96  A    between atoms: _241  and  _242
REMARK   97  A    between atoms: _241  and  _244
REMARK   98  A    between atoms: _244  and  _245
REMARK   99  A    between atoms: _248  and  _250
REMARK  100  A    between atoms: _250  and  _251
REMARK  101  A    between atoms: _250  and  _253
REMARK  102  A    between atoms: _253  and  _254
REMARK  103  A    between atoms: _254  and  _255
REMARK  104  A    between atoms: _258  and  _260
REMARK  105  A    between atoms: _260  and  _261
REMARK  106  A    between atoms: _260  and  _263
REMARK  107  A    between atoms: _263  and  _264
REMARK  108  A    between atoms: _267  and  _269
REMARK  109  A    between atoms: _269  and  _270
REMARK  110  A    between atoms: _269  and  _272
REMARK  111  A    between atoms: _272  and  _273
REMARK  112  A    between atoms: _283  and  _285
REMARK  113  A    between atoms: _285  and  _286
REMARK  114  A    between atoms: _288  and  _290
REMARK  115  A    between atoms: _290  and  _291
REMARK  116  A    between atoms: _290  and  _293
REMARK  117  A    between atoms: _293  and  _294
REMARK  118  A    between atoms: _297  and  _299
REMARK  119  A    between atoms: _299  and  _300
REMARK  120  A    between atoms: _299  and  _302
REMARK  121  A    between atoms: _302  and  _303
REMARK  122  A    between atoms: _305  and  _307
REMARK  123  A    between atoms: _307  and  _308
REMARK  124  A    between atoms: _307  and  _310
REMARK  125  A    between atoms: _310  and  _311
REMARK  126  A    between atoms: _321  and  _323
REMARK  127  A    between atoms: _323  and  _324
REMARK  128  A    between atoms: _323  and  _326
REMARK  129  A    between atoms: _326  and  _327
REMARK  130  A    between atoms: _327  and  _328
REMARK  131  A    between atoms: _328  and  _329
REMARK                            x       y       z     vdW  Elec       q    Type
REMARK                         _______ _______ _______ _____ _____    ______ ____
ROOT
ATOM      1  C   HIS A   1      12.749  15.530  24.415  0.00  0.00    +0.239 C 
ATOM      2  N   THR A   2      12.384  16.765  24.784  0.00  0.00    -0.296 N 
ATOM      3  H   THR A   2      11.437  16.835  25.208  0.00  0.00    +0.150 HD
ATOM      4  O   HIS A   1      11.955  14.603  24.560  0.00  0.00    -0.274 OA
ENDROOT
BRANCH   1   5
ATOM      5  CA  HIS A   1      14.116  15.248  23.850  0.00  0.00    +0.151 C 
BRANCH   5   6
ATOM      6  N   HIS A   1      14.823  14.390  24.799  0.00  0.00    -0.238 NA
ATOM      7  H   HIS A   1      14.292  13.659  25.313  0.00  0.00    +0.142 HD
ENDBRANCH   5   6
BRANCH   5   8
ATOM      8  CB  HIS A   1      14.005  14.475  22.520  0.00  0.00    +0.074 C 
BRANCH   8   9
ATOM      9  CG  HIS A   1      13.315  15.222  21.448  0.00  0.00    +0.082 A 
ATOM     10  CD2 HIS A   1      12.065  15.083  20.973  0.00  0.00    +0.115 A 
ATOM     11  NE2 HIS A   1      11.890  16.016  19.972  0.00  0.00    -0.221 NA
ATOM     12  CE1 HIS A   1      13.021  16.681  19.832  0.00  0.00    +0.199 A 
ATOM     13  ND1 HIS A   1      13.895  16.242  20.717  0.00  0.00    -0.227 NA
ENDBRANCH   8   9
ENDBRANCH   5   8
ENDBRANCH   1   5
BRANCH   2  14
ATOM     14  CA  THR A   2      13.111  18.032  24.683  0.00  0.00    +0.164 C 
BRANCH  14  15
ATOM     15  C   THR A   2      12.535  18.910  25.836  0.00  0.00    +0.229 C 
ATOM     16  O   THR A   2      11.390  18.735  26.219  0.00  0.00    -0.286 OA
ENDBRANCH  14  15
BRANCH  14  17
ATOM     17  CB  THR A   2      12.917  18.698  23.305  0.00  0.00    +0.136 C 
ATOM     18  CG2 THR A   2      11.460  18.946  22.948  0.00  0.00    +0.034 C 
BRANCH  17  19
ATOM     19  OG1 THR A   2      13.610  19.965  23.260  0.00  0.00    -0.382 OA
ATOM     20  HG1 THR A   2      14.576  19.817  23.415  0.00  0.00    +0.210 HD
ENDBRANCH  17  19
ENDBRANCH  14  17
ENDBRANCH   2  14
TORSDOF 8
REMARK  Name = ../refined-set-2016/1v0k/1v0k_pocket.pdb
REMARK  131 active torsions:
REMARK  status: ('A' for Active; 'I' for Inactive)
REMARK    1  A    between atoms: _1  and  _3
REMARK    2  A    between atoms: _3  and  _4
REMARK    3  A    between atoms: _7  and  _9
REMARK    4  A    between atoms: _9  and  _10
REMARK    5  A    between atoms: _13  and  _15
REMARK    6  A    between atoms: _15  and  _16
REMARK    7  A    between atoms: _15  and  _18
REMARK    8  A    between atoms: _18  and  _19
REMARK    9  A    between atoms: _19  and  _20
REMARK   10  A    between atoms: _20  and  _21
REMARK   11  A    between atoms: _30  and  _32
REMARK   12  A    between atoms: _32  and  _33
REMARK   13  A    between atoms: _32  and  _35
REMARK   14  A    between atoms: _35  and  _36
REMARK   15  A    between atoms: _39  and  _41
REMARK   16  A    between atoms: _41  and  _42
REMARK   17  A    between atoms: _45  and  _47
REMARK   18  A    between atoms: _47  and  _48
REMARK   19  A    between atoms: _47  and  _50
REMARK   20  A    between atoms: _50  and  _51
REMARK   21  A    between atoms: _51  and  _52
REMARK   22  A    between atoms: _55  and  _57
REMARK   23  A    between atoms: _57  and  _58
REMARK   24  A    between atoms: _57  and  _60
REMARK   25  A    between atoms: _60  and  _61
REMARK   26  A    between atoms: _66  and  _68
REMARK   27  A    between atoms: _68  and  _69
REMARK   28  A    between atoms: _68  and  _71
REMARK   29  A    between atoms: _71  and  _72
REMARK   30  A    between atoms: _72  and  _73
REMARK   31  A    between atoms: _73  and  _74
REMARK   32  A    between atoms: _74  and  _75
REMARK   33  A    between atoms: _79  and  _81
REMARK   34  A    between atoms: _81  and  _82
REMARK   35  A    between atoms: _81  and  _84
REMARK   36  A    between atoms: _84  and  _85
REMARK   37  A    between atoms: _85  and  _86
REMARK   38  A    between atoms: _86  and  _87
REMARK   39  A    between atoms: _96  and  _98
REMARK   40  A    between atoms: _98  and  _99
REMARK   41  A    between atoms: _98  and  _101
REMARK   42  A    between atoms: _101  and  _102
REMARK   43  A    between atoms: _107  and  _109
REMARK   44  A    between atoms: _109  and  _110
REMARK   45  A    between atoms: _109  and  _112
REMARK   46  A    between atoms: _112  and  _113
REMARK   47  A    between atoms: _116  and  _118
REMARK   48  A    between atoms: _118  and  _119
REMARK   49  A    between atoms: _118  and  _121
REMARK   50  A    between atoms: _121  and  _122
REMARK   51  A    between atoms: _132  and  _134
REMARK   52  A    between atoms: _134  and  _135
REMARK   53  A    between atoms: _134  and  _137
REMARK   54  A    between atoms: _137  and  _138
REMARK   55  A    between atoms: _140  and  _142
REMARK   56  A    between atoms: _142  and  _143
REMARK   57  A    between atoms: _142  and  _145
REMARK   58  A    between atoms: _145  and  _146
REMARK   59  A    between atoms: _146  and  _147
REMARK   60  A    between atoms: _152  and  _154
REMARK   61  A    between atoms: _154  and  _155
REMARK   62  A    between atoms: _154  and  _157
REMARK   63  A    between atoms: _157  and  _158
REMARK   64  A    between atoms: _161  and  _163
REMARK   65  A    between atoms: _163  and  _164
REMARK   66  A    between atoms: _163  and  _166
REMARK   67  A    between atoms: _166  and  _167
REMARK   68  A    between atoms: _172  and  _174
REMARK   69  A    between atoms: _174  and  _175
REMARK   70  A    between atoms: _174  and  _177
REMARK   71  A    between atoms: _177  and  _178
REMARK   72  A    between atoms: _178  and  _179
REMARK   73  A    between atoms: _182  and  _184
REMARK   74  A    between atoms: _184  and  _185
REMARK   75  A    between atoms: _184  and  _187
REMARK   76  A    between atoms: _187  and  _188
REMARK   77  A    between atoms: _193  and  _195
REMARK   78  A    between atoms: _195  and  _196
REMARK   79  A    between atoms: _195  and  _198
REMARK   80  A    between atoms: _198  and  _199
REMARK   81  A    between atoms: _202  and  _204
REMARK   82  A    between atoms: _204  and  _205
REMARK   83  A    between atoms: _204  and  _207
REMARK   84  A    between atoms: _207  and  _208
REMARK   85  A    between atoms: _213  and  _214
REMARK   86  A    between atoms: _216  and  _218
REMARK   87  A    between atoms: _218  and  _219
REMARK   88  A    between atoms: _218  and  _221
REMARK   89  A    between atoms: _221  and  _222
REMARK   90  A    between atoms: _222  and  _223
REMARK   91  A    between atoms: _228  and  _230
REMARK   92  A    between atoms: _230  and  _231
REMARK   93  A    between atoms: _230  and  _233
REMARK   94  A    between atoms: _233  and  _234
REMARK   95  A    between atoms: _239  and  _241
REMARK   96  A    between atoms: _241  and  _242
REMARK   97  A    between atoms: _241  and  _244
REMARK   98  A    between atoms: _244  and  _245
REMARK   99  A    between atoms: _248  and  _250
REMARK  100  A    between atoms: _250  and  _251
REMARK  101  A    between atoms: _250  and  _253
REMARK  102  A    between atoms: _253  and  _254
REMARK  103  A    between atoms: _254  and  _255
REMARK  104  A    between atoms: _258  and  _260
REMARK  105  A    between atoms: _260  and  _261
REMARK  106  A    between atoms: _260  and  _263
REMARK  107  A    between atoms: _263  and  _264
REMARK  108  A    between atoms: _267  and  _269
REMARK  109  A    between atoms: _269  and  _270
REMARK  110  A    between atoms: _269  and  _272
REMARK  111  A    between atoms: _272  and  _273
REMARK  112  A    between atoms: _283  and  _285
REMARK  113  A    between atoms: _285  and  _286
REMARK  114  A    between atoms: _288  and  _290
REMARK  115  A    between atoms: _290  and  _291
REMARK  116  A    between atoms: _290  and  _293
REMARK  117  A    between atoms: _293  and  _294
REMARK  118  A    between atoms: _297  and  _299
REMARK  119  A    between atoms: _299  and  _300
REMARK  120  A    between atoms: _299  and  _302
REMARK  121  A    between atoms: _302  and  _303
REMARK  122  A    between atoms: _305  and  _307
REMARK  123  A    between atoms: _307  and  _308
REMARK  124  A    between atoms: _307  and  _310
REMARK  125  A    between atoms: _310  and  _311
REMARK  126  A    between atoms: _321  and  _323
REMARK  127  A    between atoms: _323  and  _324
REMARK  128  A    between atoms: _323  and  _326
REMARK  129  A    between atoms: _326  and  _327
REMARK  130  A    between atoms: _327  and  _328
REMARK  131  A    between atoms: _328  and  _329
REMARK                            x       y       z     vdW  Elec       q    Type
REMARK                         _______ _______ _______ _____ _____    ______ ____
ROOT
ATOM      1  CG  TRP A   1       9.308  22.295  21.297  0.00  0.00    -0.002 A 
ATOM      2  CD2 TRP A   1       8.823  21.039  20.839  0.00  0.00    +0.013 A 
ATOM      3  CE3 TRP A   1       8.417  19.887  21.484  0.00  0.00    +0.001 A 
ATOM      4  CZ3 TRP A   1       7.976  18.824  20.724  0.00  0.00    +0.000 A 
ATOM      5  CH2 TRP A   1       7.940  18.882  19.345  0.00  0.00    +0.001 A 
ATOM      6  CZ2 TRP A   1       8.310  20.003  18.670  0.00  0.00    +0.017 A 
ATOM      7  CE2 TRP A   1       8.756  21.082  19.429  0.00  0.00    +0.056 A 
ATOM      8  NE1 TRP A   1       9.170  22.325  19.049  0.00  0.00    -0.352 N 
ATOM      9  HE1 TRP A   1       9.219  22.674  18.071  0.00  0.00    +0.166 HD
ATOM     10  CD1 TRP A   1       9.512  23.042  20.175  0.00  0.00    +0.068 A 
ENDROOT
BRANCH   1  11
ATOM     11  CB  TRP A   1       9.592  22.625  22.724  0.00  0.00    +0.053 C 
BRANCH  11  12
ATOM     12  CA  TRP A   1       9.697  24.104  23.123  0.00  0.00    +0.137 C 
BRANCH  12  13
ATOM     13  N   TRP A   1      10.214  24.181  24.514  0.00  0.00    -0.239 NA
ATOM     14  H   TRP A   1       9.543  24.368  25.286  0.00  0.00    +0.142 HD
ENDBRANCH  12  13
BRANCH  12  15
ATOM     15  C   TRP A   1       8.320  24.711  23.098  0.00  0.00    +0.224 C 
ATOM     16  O   TRP A   1       7.532  24.569  24.048  0.00  0.00    -0.287 OA
ENDBRANCH  12  15
ENDBRANCH  11  12
ENDBRANCH   1  11
TORSDOF 4
REMARK  Name = ../refined-set-2016/1v0k/1v0k_pocket.pdb
REMARK  131 active torsions:
REMARK  status: ('A' for Active; 'I' for Inactive)
REMARK    1  A    between atoms: _1  and  _3
REMARK    2  A    between atoms: _3  and  _4
REMARK    3  A    between atoms: _7  and  _9
REMARK    4  A    between atoms: _9  and  _10
REMARK    5  A    between atoms: _13  and  _15
REMARK    6  A    between atoms: _15  and  _16
REMARK    7  A    between atoms: _15  and  _18
REMARK    8  A    between atoms: _18  and  _19
REMARK    9  A    between atoms: _19  and  _20
REMARK   10  A    between atoms: _20  and  _21
REMARK   11  A    between atoms: _30  and  _32
REMARK   12  A    between atoms: _32  and  _33
REMARK   13  A    between atoms: _32  and  _35
REMARK   14  A    between atoms: _35  and  _36
REMARK   15  A    between atoms: _39  and  _41
REMARK   16  A    between atoms: _41  and  _42
REMARK   17  A    between atoms: _45  and  _47
REMARK   18  A    between atoms: _47  and  _48
REMARK   19  A    between atoms: _47  and  _50
REMARK   20  A    between atoms: _50  and  _51
REMARK   21  A    between atoms: _51  and  _52
REMARK   22  A    between atoms: _55  and  _57
REMARK   23  A    between atoms: _57  and  _58
REMARK   24  A    between atoms: _57  and  _60
REMARK   25  A    between atoms: _60  and  _61
REMARK   26  A    between atoms: _66  and  _68
REMARK   27  A    between atoms: _68  and  _69
REMARK   28  A    between atoms: _68  and  _71
REMARK   29  A    between atoms: _71  and  _72
REMARK   30  A    between atoms: _72  and  _73
REMARK   31  A    between atoms: _73  and  _74
REMARK   32  A    between atoms: _74  and  _75
REMARK   33  A    between atoms: _79  and  _81
REMARK   34  A    between atoms: _81  and  _82
REMARK   35  A    between atoms: _81  and  _84
REMARK   36  A    between atoms: _84  and  _85
REMARK   37  A    between atoms: _85  and  _86
REMARK   38  A    between atoms: _86  and  _87
REMARK   39  A    between atoms: _96  and  _98
REMARK   40  A    between atoms: _98  and  _99
REMARK   41  A    between atoms: _98  and  _101
REMARK   42  A    between atoms: _101  and  _102
REMARK   43  A    between atoms: _107  and  _109
REMARK   44  A    between atoms: _109  and  _110
REMARK   45  A    between atoms: _109  and  _112
REMARK   46  A    between atoms: _112  and  _113
REMARK   47  A    between atoms: _116  and  _118
REMARK   48  A    between atoms: _118  and  _119
REMARK   49  A    between atoms: _118  and  _121
REMARK   50  A    between atoms: _121  and  _122
REMARK   51  A    between atoms: _132  and  _134
REMARK   52  A    between atoms: _134  and  _135
REMARK   53  A    between atoms: _134  and  _137
REMARK   54  A    between atoms: _137  and  _138
REMARK   55  A    between atoms: _140  and  _142
REMARK   56  A    between atoms: _142  and  _143
REMARK   57  A    between atoms: _142  and  _145
REMARK   58  A    between atoms: _145  and  _146
REMARK   59  A    between atoms: _146  and  _147
REMARK   60  A    between atoms: _152  and  _154
REMARK   61  A    between atoms: _154  and  _155
REMARK   62  A    between atoms: _154  and  _157
REMARK   63  A    between atoms: _157  and  _158
REMARK   64  A    between atoms: _161  and  _163
REMARK   65  A    between atoms: _163  and  _164
REMARK   66  A    between atoms: _163  and  _166
REMARK   67  A    between atoms: _166  and  _167
REMARK   68  A    between atoms: _172  and  _174
REMARK   69  A    between atoms: _174  and  _175
REMARK   70  A    between atoms: _174  and  _177
REMARK   71  A    between atoms: _177  and  _178
REMARK   72  A    between atoms: _178  and  _179
REMARK   73  A    between atoms: _182  and  _184
REMARK   74  A    between atoms: _184  and  _185
REMARK   75  A    between atoms: _184  and  _187
REMARK   76  A    between atoms: _187  and  _188
REMARK   77  A    between atoms: _193  and  _195
REMARK   78  A    between atoms: _195  and  _196
REMARK   79  A    between atoms: _195  and  _198
REMARK   80  A    between atoms: _198  and  _199
REMARK   81  A    between atoms: _202  and  _204
REMARK   82  A    between atoms: _204  and  _205
REMARK   83  A    between atoms: _204  and  _207
REMARK   84  A    between atoms: _207  and  _208
REMARK   85  A    between atoms: _213  and  _214
REMARK   86  A    between atoms: _216  and  _218
REMARK   87  A    between atoms: _218  and  _219
REMARK   88  A    between atoms: _218  and  _221
REMARK   89  A    between atoms: _221  and  _222
REMARK   90  A    between atoms: _222  and  _223
REMARK   91  A    between atoms: _228  and  _230
REMARK   92  A    between atoms: _230  and  _231
REMARK   93  A    between atoms: _230  and  _233
REMARK   94  A    between atoms: _233  and  _234
REMARK   95  A    between atoms: _239  and  _241
REMARK   96  A    between atoms: _241  and  _242
REMARK   97  A    between atoms: _241  and  _244
REMARK   98  A    between atoms: _244  and  _245
REMARK   99  A    between atoms: _248  and  _250
REMARK  100  A    between atoms: _250  and  _251
REMARK  101  A    between atoms: _250  and  _253
REMARK  102  A    between atoms: _253  and  _254
REMARK  103  A    between atoms: _254  and  _255
REMARK  104  A    between atoms: _258  and  _260
REMARK  105  A    between atoms: _260  and  _261
REMARK  106  A    between atoms: _260  and  _263
REMARK  107  A    between atoms: _263  and  _264
REMARK  108  A    between atoms: _267  and  _269
REMARK  109  A    between atoms: _269  and  _270
REMARK  110  A    between atoms: _269  and  _272
REMARK  111  A    between atoms: _272  and  _273
REMARK  112  A    between atoms: _283  and  _285
REMARK  113  A    between atoms: _285  and  _286
REMARK  114  A    between atoms: _288  and  _290
REMARK  115  A    between atoms: _290  and  _291
REMARK  116  A    between atoms: _290  and  _293
REMARK  117  A    between atoms: _293  and  _294
REMARK  118  A    between atoms: _297  and  _299
REMARK  119  A    between atoms: _299  and  _300
REMARK  120  A    between atoms: _299  and  _302
REMARK  121  A    between atoms: _302  and  _303
REMARK  122  A    between atoms: _305  and  _307
REMARK  123  A    between atoms: _307  and  _308
REMARK  124  A    between atoms: _307  and  _310
REMARK  125  A    between atoms: _310  and  _311
REMARK  126  A    between atoms: _321  and  _323
REMARK  127  A    between atoms: _323  and  _324
REMARK  128  A    between atoms: _323  and  _326
REMARK  129  A    between atoms: _326  and  _327
REMARK  130  A    between atoms: _327  and  _328
REMARK  131  A    between atoms: _328  and  _329
REMARK                            x       y       z     vdW  Elec       q    Type
REMARK                         _______ _______ _______ _____ _____    ______ ____
ROOT
ATOM      1  C   SER A   1       4.876  21.578  21.772  0.00  0.00    +0.241 C 
ATOM      2  O   SER A   1       5.771  21.360  22.579  0.00  0.00    -0.274 OA
ATOM      3  N   GLN A   2       3.740  20.889  21.741  0.00  0.00    -0.298 N 
ATOM      4  H   GLN A   2       3.034  21.111  21.010  0.00  0.00    +0.150 HD
ENDROOT
BRANCH   1   5
ATOM      5  CA  SER A   1       5.039  22.660  20.705  0.00  0.00    +0.174 C 
BRANCH   5   6
ATOM      6  N   SER A   1       5.963  23.705  21.117  0.00  0.00    -0.236 NA
ATOM      7  H   SER A   1       6.984  23.516  21.049  0.00  0.00    +0.142 HD
ENDBRANCH   5   6
BRANCH   5   8
ATOM      8  CB  SER A   1       5.515  22.036  19.401  0.00  0.00    +0.163 C 
BRANCH   8   9
ATOM      9  OG  SER A   1       4.517  21.189  18.847  0.00  0.00    -0.380 OA
ATOM     10  H   SER A   1       3.700  21.718  18.667  0.00  0.00    +0.211 HD
ENDBRANCH   8   9
ENDBRANCH   5   8
ENDBRANCH   1   5
BRANCH   3  11
ATOM     11  CA  GLN A   2       3.458  19.838  22.696  0.00  0.00    +0.137 C 
BRANCH  11  12
ATOM     12  C   GLN A   2       3.569  20.315  24.161  0.00  0.00    +0.227 C 
ATOM     13  O   GLN A   2       3.897  19.542  25.059  0.00  0.00    -0.286 OA
ENDBRANCH  11  12
BRANCH  11  14
ATOM     14  CB  GLN A   2       4.259  18.552  22.353  0.00  0.00    +0.037 C 
BRANCH  14  15
ATOM     15  CG  GLN A   2       3.673  17.919  21.065  0.00  0.00    +0.087 C 
BRANCH  15  16
ATOM     16  CD  GLN A   2       4.457  16.726  20.604  0.00  0.00    +0.219 C 
ATOM     17  NE2 GLN A   2       4.106  15.545  21.115  0.00  0.00    -0.329 N 
ATOM     18 HE21 GLN A   2       3.288  15.477  21.754  0.00  0.00    +0.145 HD
ATOM     19 HE22 GLN A   2       4.650  14.692  20.875  0.00  0.00    +0.145 HD
ATOM     20  OE1 GLN A   2       5.421  16.837  19.845  0.00  0.00    -0.275 OA
ENDBRANCH  15  16
ENDBRANCH  14  15
ENDBRANCH  11  14
ENDBRANCH   3  11
TORSDOF 9
REMARK  Name = ../refined-set-2016/1v0k/1v0k_pocket.pdb
REMARK  131 active torsions:
REMARK  status: ('A' for Active; 'I' for Inactive)
REMARK    1  A    between atoms: _1  and  _3
REMARK    2  A    between atoms: _3  and  _4
REMARK    3  A    between atoms: _7  and  _9
REMARK    4  A    between atoms: _9  and  _10
REMARK    5  A    between atoms: _13  and  _15
REMARK    6  A    between atoms: _15  and  _16
REMARK    7  A    between atoms: _15  and  _18
REMARK    8  A    between atoms: _18  and  _19
REMARK    9  A    between atoms: _19  and  _20
REMARK   10  A    between atoms: _20  and  _21
REMARK   11  A    between atoms: _30  and  _32
REMARK   12  A    between atoms: _32  and  _33
REMARK   13  A    between atoms: _32  and  _35
REMARK   14  A    between atoms: _35  and  _36
REMARK   15  A    between atoms: _39  and  _41
REMARK   16  A    between atoms: _41  and  _42
REMARK   17  A    between atoms: _45  and  _47
REMARK   18  A    between atoms: _47  and  _48
REMARK   19  A    between atoms: _47  and  _50
REMARK   20  A    between atoms: _50  and  _51
REMARK   21  A    between atoms: _51  and  _52
REMARK   22  A    between atoms: _55  and  _57
REMARK   23  A    between atoms: _57  and  _58
REMARK   24  A    between atoms: _57  and  _60
REMARK   25  A    between atoms: _60  and  _61
REMARK   26  A    between atoms: _66  and  _68
REMARK   27  A    between atoms: _68  and  _69
REMARK   28  A    between atoms: _68  and  _71
REMARK   29  A    between atoms: _71  and  _72
REMARK   30  A    between atoms: _72  and  _73
REMARK   31  A    between atoms: _73  and  _74
REMARK   32  A    between atoms: _74  and  _75
REMARK   33  A    between atoms: _79  and  _81
REMARK   34  A    between atoms: _81  and  _82
REMARK   35  A    between atoms: _81  and  _84
REMARK   36  A    between atoms: _84  and  _85
REMARK   37  A    between atoms: _85  and  _86
REMARK   38  A    between atoms: _86  and  _87
REMARK   39  A    between atoms: _96  and  _98
REMARK   40  A    between atoms: _98  and  _99
REMARK   41  A    between atoms: _98  and  _101
REMARK   42  A    between atoms: _101  and  _102
REMARK   43  A    between atoms: _107  and  _109
REMARK   44  A    between atoms: _109  and  _110
REMARK   45  A    between atoms: _109  and  _112
REMARK   46  A    between atoms: _112  and  _113
REMARK   47  A    between atoms: _116  and  _118
REMARK   48  A    between atoms: _118  and  _119
REMARK   49  A    between atoms: _118  and  _121
REMARK   50  A    between atoms: _121  and  _122
REMARK   51  A    between atoms: _132  and  _134
REMARK   52  A    between atoms: _134  and  _135
REMARK   53  A    between atoms: _134  and  _137
REMARK   54  A    between atoms: _137  and  _138
REMARK   55  A    between atoms: _140  and  _142
REMARK   56  A    between atoms: _142  and  _143
REMARK   57  A    between atoms: _142  and  _145
REMARK   58  A    between atoms: _145  and  _146
REMARK   59  A    between atoms: _146  and  _147
REMARK   60  A    between atoms: _152  and  _154
REMARK   61  A    between atoms: _154  and  _155
REMARK   62  A    between atoms: _154  and  _157
REMARK   63  A    between atoms: _157  and  _158
REMARK   64  A    between atoms: _161  and  _163
REMARK   65  A    between atoms: _163  and  _164
REMARK   66  A    between atoms: _163  and  _166
REMARK   67  A    between atoms: _166  and  _167
REMARK   68  A    between atoms: _172  and  _174
REMARK   69  A    between atoms: _174  and  _175
REMARK   70  A    between atoms: _174  and  _177
REMARK   71  A    between atoms: _177  and  _178
REMARK   72  A    between atoms: _178  and  _179
REMARK   73  A    between atoms: _182  and  _184
REMARK   74  A    between atoms: _184  and  _185
REMARK   75  A    between atoms: _184  and  _187
REMARK   76  A    between atoms: _187  and  _188
REMARK   77  A    between atoms: _193  and  _195
REMARK   78  A    between atoms: _195  and  _196
REMARK   79  A    between atoms: _195  and  _198
REMARK   80  A    between atoms: _198  and  _199
REMARK   81  A    between atoms: _202  and  _204
REMARK   82  A    between atoms: _204  and  _205
REMARK   83  A    between atoms: _204  and  _207
REMARK   84  A    between atoms: _207  and  _208
REMARK   85  A    between atoms: _213  and  _214
REMARK   86  A    between atoms: _216  and  _218
REMARK   87  A    between atoms: _218  and  _219
REMARK   88  A    between atoms: _218  and  _221
REMARK   89  A    between atoms: _221  and  _222
REMARK   90  A    between atoms: _222  and  _223
REMARK   91  A    between atoms: _228  and  _230
REMARK   92  A    between atoms: _230  and  _231
REMARK   93  A    between atoms: _230  and  _233
REMARK   94  A    between atoms: _233  and  _234
REMARK   95  A    between atoms: _239  and  _241
REMARK   96  A    between atoms: _241  and  _242
REMARK   97  A    between atoms: _241  and  _244
REMARK   98  A    between atoms: _244  and  _245
REMARK   99  A    between atoms: _248  and  _250
REMARK  100  A    between atoms: _250  and  _251
REMARK  101  A    between atoms: _250  and  _253
REMARK  102  A    between atoms: _253  and  _254
REMARK  103  A    between atoms: _254  and  _255
REMARK  104  A    between atoms: _258  and  _260
REMARK  105  A    between atoms: _260  and  _261
REMARK  106  A    between atoms: _260  and  _263
REMARK  107  A    between atoms: _263  and  _264
REMARK  108  A    between atoms: _267  and  _269
REMARK  109  A    between atoms: _269  and  _270
REMARK  110  A    between atoms: _269  and  _272
REMARK  111  A    between atoms: _272  and  _273
REMARK  112  A    between atoms: _283  and  _285
REMARK  113  A    between atoms: _285  and  _286
REMARK  114  A    between atoms: _288  and  _290
REMARK  115  A    between atoms: _290  and  _291
REMARK  116  A    between atoms: _290  and  _293
REMARK  117  A    between atoms: _293  and  _294
REMARK  118  A    between atoms: _297  and  _299
REMARK  119  A    between atoms: _299  and  _300
REMARK  120  A    between atoms: _299  and  _302
REMARK  121  A    between atoms: _302  and  _303
REMARK  122  A    between atoms: _305  and  _307
REMARK  123  A    between atoms: _307  and  _308
REMARK  124  A    between atoms: _307  and  _310
REMARK  125  A    between atoms: _310  and  _311
REMARK  126  A    between atoms: _321  and  _323
REMARK  127  A    between atoms: _323  and  _324
REMARK  128  A    between atoms: _323  and  _326
REMARK  129  A    between atoms: _326  and  _327
REMARK  130  A    between atoms: _327  and  _328
REMARK  131  A    between atoms: _328  and  _329
REMARK                            x       y       z     vdW  Elec       q    Type
REMARK                         _______ _______ _______ _____ _____    ______ ____
ROOT
ATOM      1  CA  ASP A   1      17.778  18.852  23.284  0.00  0.00    +0.144 C 
ENDROOT
BRANCH   1   2
ATOM      2  N   ASP A   1      18.338  17.761  24.102  0.00  0.00    -0.239 NA
ATOM      3  H   ASP A   1      17.815  16.864  24.160  0.00  0.00    +0.142 HD
ENDBRANCH   1   2
BRANCH   1   4
ATOM      4  C   ASP A   1      17.132  19.799  24.304  0.00  0.00    +0.225 C 
ATOM      5  O   ASP A   1      15.971  19.637  24.702  0.00  0.00    -0.287 OA
ENDBRANCH   1   4
BRANCH   1   6
ATOM      6  CB  ASP A   1      16.762  18.341  22.274  0.00  0.00    +0.139 C 
BRANCH   6   7
ATOM      7  CG  ASP A   1      17.376  17.522  21.161  0.00  0.00    +0.367 C 
ATOM      8  OD2 ASP A   1      18.581  17.705  20.866  0.00  0.00    -0.246 OA
ATOM      9  OD1 ASP A   1      16.671  16.665  20.564  0.00  0.00    -0.246 OA
ENDBRANCH   6   7
ENDBRANCH   1   6
TORSDOF 4
REMARK  Name = ../refined-set-2016/1v0k/1v0k_pocket.pdb
REMARK  131 active torsions:
REMARK  status: ('A' for Active; 'I' for Inactive)
REMARK    1  A    between atoms: _1  and  _3
REMARK    2  A    between atoms: _3  and  _4
REMARK    3  A    between atoms: _7  and  _9
REMARK    4  A    between atoms: _9  and  _10
REMARK    5  A    between atoms: _13  and  _15
REMARK    6  A    between atoms: _15  and  _16
REMARK    7  A    between atoms: _15  and  _18
REMARK    8  A    between atoms: _18  and  _19
REMARK    9  A    between atoms: _19  and  _20
REMARK   10  A    between atoms: _20  and  _21
REMARK   11  A    between atoms: _30  and  _32
REMARK   12  A    between atoms: _32  and  _33
REMARK   13  A    between atoms: _32  and  _35
REMARK   14  A    between atoms: _35  and  _36
REMARK   15  A    between atoms: _39  and  _41
REMARK   16  A    between atoms: _41  and  _42
REMARK   17  A    between atoms: _45  and  _47
REMARK   18  A    between atoms: _47  and  _48
REMARK   19  A    between atoms: _47  and  _50
REMARK   20  A    between atoms: _50  and  _51
REMARK   21  A    between atoms: _51  and  _52
REMARK   22  A    between atoms: _55  and  _57
REMARK   23  A    between atoms: _57  and  _58
REMARK   24  A    between atoms: _57  and  _60
REMARK   25  A    between atoms: _60  and  _61
REMARK   26  A    between atoms: _66  and  _68
REMARK   27  A    between atoms: _68  and  _69
REMARK   28  A    between atoms: _68  and  _71
REMARK   29  A    between atoms: _71  and  _72
REMARK   30  A    between atoms: _72  and  _73
REMARK   31  A    between atoms: _73  and  _74
REMARK   32  A    between atoms: _74  and  _75
REMARK   33  A    between atoms: _79  and  _81
REMARK   34  A    between atoms: _81  and  _82
REMARK   35  A    between atoms: _81  and  _84
REMARK   36  A    between atoms: _84  and  _85
REMARK   37  A    between atoms: _85  and  _86
REMARK   38  A    between atoms: _86  and  _87
REMARK   39  A    between atoms: _96  and  _98
REMARK   40  A    between atoms: _98  and  _99
REMARK   41  A    between atoms: _98  and  _101
REMARK   42  A    between atoms: _101  and  _102
REMARK   43  A    between atoms: _107  and  _109
REMARK   44  A    between atoms: _109  and  _110
REMARK   45  A    between atoms: _109  and  _112
REMARK   46  A    between atoms: _112  and  _113
REMARK   47  A    between atoms: _116  and  _118
REMARK   48  A    between atoms: _118  and  _119
REMARK   49  A    between atoms: _118  and  _121
REMARK   50  A    between atoms: _121  and  _122
REMARK   51  A    between atoms: _132  and  _134
REMARK   52  A    between atoms: _134  and  _135
REMARK   53  A    between atoms: _134  and  _137
REMARK   54  A    between atoms: _137  and  _138
REMARK   55  A    between atoms: _140  and  _142
REMARK   56  A    between atoms: _142  and  _143
REMARK   57  A    between atoms: _142  and  _145
REMARK   58  A    between atoms: _145  and  _146
REMARK   59  A    between atoms: _146  and  _147
REMARK   60  A    between atoms: _152  and  _154
REMARK   61  A    between atoms: _154  and  _155
REMARK   62  A    between atoms: _154  and  _157
REMARK   63  A    between atoms: _157  and  _158
REMARK   64  A    between atoms: _161  and  _163
REMARK   65  A    between atoms: _163  and  _164
REMARK   66  A    between atoms: _163  and  _166
REMARK   67  A    between atoms: _166  and  _167
REMARK   68  A    between atoms: _172  and  _174
REMARK   69  A    between atoms: _174  and  _175
REMARK   70  A    between atoms: _174  and  _177
REMARK   71  A    between atoms: _177  and  _178
REMARK   72  A    between atoms: _178  and  _179
REMARK   73  A    between atoms: _182  and  _184
REMARK   74  A    between atoms: _184  and  _185
REMARK   75  A    between atoms: _184  and  _187
REMARK   76  A    between atoms: _187  and  _188
REMARK   77  A    between atoms: _193  and  _195
REMARK   78  A    between atoms: _195  and  _196
REMARK   79  A    between atoms: _195  and  _198
REMARK   80  A    between atoms: _198  and  _199
REMARK   81  A    between atoms: _202  and  _204
REMARK   82  A    between atoms: _204  and  _205
REMARK   83  A    between atoms: _204  and  _207
REMARK   84  A    between atoms: _207  and  _208
REMARK   85  A    between atoms: _213  and  _214
REMARK   86  A    between atoms: _216  and  _218
REMARK   87  A    between atoms: _218  and  _219
REMARK   88  A    between atoms: _218  and  _221
REMARK   89  A    between atoms: _221  and  _222
REMARK   90  A    between atoms: _222  and  _223
REMARK   91  A    between atoms: _228  and  _230
REMARK   92  A    between atoms: _230  and  _231
REMARK   93  A    between atoms: _230  and  _233
REMARK   94  A    between atoms: _233  and  _234
REMARK   95  A    between atoms: _239  and  _241
REMARK   96  A    between atoms: _241  and  _242
REMARK   97  A    between atoms: _241  and  _244
REMARK   98  A    between atoms: _244  and  _245
REMARK   99  A    between atoms: _248  and  _250
REMARK  100  A    between atoms: _250  and  _251
REMARK  101  A    between atoms: _250  and  _253
REMARK  102  A    between atoms: _253  and  _254
REMARK  103  A    between atoms: _254  and  _255
REMARK  104  A    between atoms: _258  and  _260
REMARK  105  A    between atoms: _260  and  _261
REMARK  106  A    between atoms: _260  and  _263
REMARK  107  A    between atoms: _263  and  _264
REMARK  108  A    between atoms: _267  and  _269
REMARK  109  A    between atoms: _269  and  _270
REMARK  110  A    between atoms: _269  and  _272
REMARK  111  A    between atoms: _272  and  _273
REMARK  112  A    between atoms: _283  and  _285
REMARK  113  A    between atoms: _285  and  _286
REMARK  114  A    between atoms: _288  and  _290
REMARK  115  A    between atoms: _290  and  _291
REMARK  116  A    between atoms: _290  and  _293
REMARK  117  A    between atoms: _293  and  _294
REMARK  118  A    between atoms: _297  and  _299
REMARK  119  A    between atoms: _299  and  _300
REMARK  120  A    between atoms: _299  and  _302
REMARK  121  A    between atoms: _302  and  _303
REMARK  122  A    between atoms: _305  and  _307
REMARK  123  A    between atoms: _307  and  _308
REMARK  124  A    between atoms: _307  and  _310
REMARK  125  A    between atoms: _310  and  _311
REMARK  126  A    between atoms: _321  and  _323
REMARK  127  A    between atoms: _323  and  _324
REMARK  128  A    between atoms: _323  and  _326
REMARK  129  A    between atoms: _326  and  _327
REMARK  130  A    between atoms: _327  and  _328
REMARK  131  A    between atoms: _328  and  _329
REMARK                            x       y       z     vdW  Elec       q    Type
REMARK                         _______ _______ _______ _____ _____    ______ ____
ROOT
ATOM      1  C   ASN A   1      13.157  24.102  19.402  0.00  0.00    +0.239 C 
ATOM      2  O   ASN A   1      12.233  24.732  19.928  0.00  0.00    -0.274 OA
ATOM      3  N   GLU A   2      13.522  24.255  18.126  0.00  0.00    -0.298 N 
ATOM      4  H   GLU A   2      14.439  23.870  17.822  0.00  0.00    +0.150 HD
ENDROOT
BRANCH   1   5
ATOM      5  CA  ASN A   1      13.880  22.997  20.184  0.00  0.00    +0.154 C 
BRANCH   5   6
ATOM      6  N   ASN A   1      14.246  23.482  21.505  0.00  0.00    -0.238 NA
ATOM      7  H   ASN A   1      13.497  23.845  22.128  0.00  0.00    +0.142 HD
ENDBRANCH   5   6
BRANCH   5   8
ATOM      8  CB  ASN A   1      12.942  21.784  20.372  0.00  0.00    +0.111 C 
BRANCH   8   9
ATOM      9  CG  ASN A   1      12.906  20.824  19.190  0.00  0.00    +0.221 C 
ATOM     10  ND2 ASN A   1      11.782  20.144  19.025  0.00  0.00    -0.329 N 
ATOM     11 HD21 ASN A   1      10.981  20.299  19.670  0.00  0.00    +0.145 HD
ATOM     12 HD22 ASN A   1      11.700  19.455  18.251  0.00  0.00    +0.145 HD
ATOM     13  OD1 ASN A   1      13.887  20.680  18.455  0.00  0.00    -0.275 OA
ENDBRANCH   8   9
ENDBRANCH   5   8
ENDBRANCH   1   5
BRANCH   3  14
ATOM     14  CA  GLU A   2      12.678  24.949  17.124  0.00  0.00    +0.137 C 
BRANCH  14  15
ATOM     15  C   GLU A   2      12.356  26.408  17.483  0.00  0.00    +0.227 C 
ATOM     16  O   GLU A   2      11.229  26.855  17.351  0.00  0.00    -0.286 OA
ENDBRANCH  14  15
BRANCH  14  17
ATOM     17  CB  GLU A   2      11.408  24.157  16.852  0.00  0.00    +0.039 C 
BRANCH  17  18
ATOM     18  CG  GLU A   2      11.694  22.781  16.281  0.00  0.00    +0.116 C 
BRANCH  18  19
ATOM     19  CD  GLU A   2      10.455  22.028  15.887  0.00  0.00    +0.365 C 
ATOM     20  OE2 GLU A   2       9.323  22.489  16.176  0.00  0.00    -0.246 OA
ATOM     21  OE1 GLU A   2      10.612  20.936  15.301  0.00  0.00    -0.246 OA
ENDBRANCH  18  19
ENDBRANCH  17  18
ENDBRANCH  14  17
ENDBRANCH   3  14
TORSDOF 9
REMARK  Name = ../refined-set-2016/1v0k/1v0k_pocket.pdb
REMARK  131 active torsions:
REMARK  status: ('A' for Active; 'I' for Inactive)
REMARK    1  A    between atoms: _1  and  _3
REMARK    2  A    between atoms: _3  and  _4
REMARK    3  A    between atoms: _7  and  _9
REMARK    4  A    between atoms: _9  and  _10
REMARK    5  A    between atoms: _13  and  _15
REMARK    6  A    between atoms: _15  and  _16
REMARK    7  A    between atoms: _15  and  _18
REMARK    8  A    between atoms: _18  and  _19
REMARK    9  A    between atoms: _19  and  _20
REMARK   10  A    between atoms: _20  and  _21
REMARK   11  A    between atoms: _30  and  _32
REMARK   12  A    between atoms: _32  and  _33
REMARK   13  A    between atoms: _32  and  _35
REMARK   14  A    between atoms: _35  and  _36
REMARK   15  A    between atoms: _39  and  _41
REMARK   16  A    between atoms: _41  and  _42
REMARK   17  A    between atoms: _45  and  _47
REMARK   18  A    between atoms: _47  and  _48
REMARK   19  A    between atoms: _47  and  _50
REMARK   20  A    between atoms: _50  and  _51
REMARK   21  A    between atoms: _51  and  _52
REMARK   22  A    between atoms: _55  and  _57
REMARK   23  A    between atoms: _57  and  _58
REMARK   24  A    between atoms: _57  and  _60
REMARK   25  A    between atoms: _60  and  _61
REMARK   26  A    between atoms: _66  and  _68
REMARK   27  A    between atoms: _68  and  _69
REMARK   28  A    between atoms: _68  and  _71
REMARK   29  A    between atoms: _71  and  _72
REMARK   30  A    between atoms: _72  and  _73
REMARK   31  A    between atoms: _73  and  _74
REMARK   32  A    between atoms: _74  and  _75
REMARK   33  A    between atoms: _79  and  _81
REMARK   34  A    between atoms: _81  and  _82
REMARK   35  A    between atoms: _81  and  _84
REMARK   36  A    between atoms: _84  and  _85
REMARK   37  A    between atoms: _85  and  _86
REMARK   38  A    between atoms: _86  and  _87
REMARK   39  A    between atoms: _96  and  _98
REMARK   40  A    between atoms: _98  and  _99
REMARK   41  A    between atoms: _98  and  _101
REMARK   42  A    between atoms: _101  and  _102
REMARK   43  A    between atoms: _107  and  _109
REMARK   44  A    between atoms: _109  and  _110
REMARK   45  A    between atoms: _109  and  _112
REMARK   46  A    between atoms: _112  and  _113
REMARK   47  A    between atoms: _116  and  _118
REMARK   48  A    between atoms: _118  and  _119
REMARK   49  A    between atoms: _118  and  _121
REMARK   50  A    between atoms: _121  and  _122
REMARK   51  A    between atoms: _132  and  _134
REMARK   52  A    between atoms: _134  and  _135
REMARK   53  A    between atoms: _134  and  _137
REMARK   54  A    between atoms: _137  and  _138
REMARK   55  A    between atoms: _140  and  _142
REMARK   56  A    between atoms: _142  and  _143
REMARK   57  A    between atoms: _142  and  _145
REMARK   58  A    between atoms: _145  and  _146
REMARK   59  A    between atoms: _146  and  _147
REMARK   60  A    between atoms: _152  and  _154
REMARK   61  A    between atoms: _154  and  _155
REMARK   62  A    between atoms: _154  and  _157
REMARK   63  A    between atoms: _157  and  _158
REMARK   64  A    between atoms: _161  and  _163
REMARK   65  A    between atoms: _163  and  _164
REMARK   66  A    between atoms: _163  and  _166
REMARK   67  A    between atoms: _166  and  _167
REMARK   68  A    between atoms: _172  and  _174
REMARK   69  A    between atoms: _174  and  _175
REMARK   70  A    between atoms: _174  and  _177
REMARK   71  A    between atoms: _177  and  _178
REMARK   72  A    between atoms: _178  and  _179
REMARK   73  A    between atoms: _182  and  _184
REMARK   74  A    between atoms: _184  and  _185
REMARK   75  A    between atoms: _184  and  _187
REMARK   76  A    between atoms: _187  and  _188
REMARK   77  A    between atoms: _193  and  _195
REMARK   78  A    between atoms: _195  and  _196
REMARK   79  A    between atoms: _195  and  _198
REMARK   80  A    between atoms: _198  and  _199
REMARK   81  A    between atoms: _202  and  _204
REMARK   82  A    between atoms: _204  and  _205
REMARK   83  A    between atoms: _204  and  _207
REMARK   84  A    between atoms: _207  and  _208
REMARK   85  A    between atoms: _213  and  _214
REMARK   86  A    between atoms: _216  and  _218
REMARK   87  A    between atoms: _218  and  _219
REMARK   88  A    between atoms: _218  and  _221
REMARK   89  A    between atoms: _221  and  _222
REMARK   90  A    between atoms: _222  and  _223
REMARK   91  A    between atoms: _228  and  _230
REMARK   92  A    between atoms: _230  and  _231
REMARK   93  A    between atoms: _230  and  _233
REMARK   94  A    between atoms: _233  and  _234
REMARK   95  A    between atoms: _239  and  _241
REMARK   96  A    between atoms: _241  and  _242
REMARK   97  A    between atoms: _241  and  _244
REMARK   98  A    between atoms: _244  and  _245
REMARK   99  A    between atoms: _248  and  _250
REMARK  100  A    between atoms: _250  and  _251
REMARK  101  A    between atoms: _250  and  _253
REMARK  102  A    between atoms: _253  and  _254
REMARK  103  A    between atoms: _254  and  _255
REMARK  104  A    between atoms: _258  and  _260
REMARK  105  A    between atoms: _260  and  _261
REMARK  106  A    between atoms: _260  and  _263
REMARK  107  A    between atoms: _263  and  _264
REMARK  108  A    between atoms: _267  and  _269
REMARK  109  A    between atoms: _269  and  _270
REMARK  110  A    between atoms: _269  and  _272
REMARK  111  A    between atoms: _272  and  _273
REMARK  112  A    between atoms: _283  and  _285
REMARK  113  A    between atoms: _285  and  _286
REMARK  114  A    between atoms: _288  and  _290
REMARK  115  A    between atoms: _290  and  _291
REMARK  116  A    between atoms: _290  and  _293
REMARK  117  A    between atoms: _293  and  _294
REMARK  118  A    between atoms: _297  and  _299
REMARK  119  A    between atoms: _299  and  _300
REMARK  120  A    between atoms: _299  and  _302
REMARK  121  A    between atoms: _302  and  _303
REMARK  122  A    between atoms: _305  and  _307
REMARK  123  A    between atoms: _307  and  _308
REMARK  124  A    between atoms: _307  and  _310
REMARK  125  A    between atoms: _310  and  _311
REMARK  126  A    between atoms: _321  and  _323
REMARK  127  A    between atoms: _323  and  _324
REMARK  128  A    between atoms: _323  and  _326
REMARK  129  A    between atoms: _326  and  _327
REMARK  130  A    between atoms: _327  and  _328
REMARK  131  A    between atoms: _328  and  _329
REMARK                            x       y       z     vdW  Elec       q    Type
REMARK                         _______ _______ _______ _____ _____    ______ ____
ROOT
ATOM      1  CA  ASP A   2      16.044  22.700  14.851  0.00  0.00    +0.160 C 
ENDROOT
BRANCH   1   4
ATOM      2  C   ASN A   1      16.884  22.205  17.080  0.00  0.00    +0.239 C 
ATOM      3  O   ASN A   1      16.008  22.901  17.581  0.00  0.00    -0.274 OA
ATOM      4  N   ASP A   2      16.987  22.014  15.749  0.00  0.00    -0.297 N 
ATOM      5  H   ASP A   2      17.723  21.390  15.362  0.00  0.00    +0.150 HD
BRANCH   2   6
ATOM      6  CA  ASN A   1      17.856  21.425  17.958  0.00  0.00    +0.154 C 
BRANCH   6   7
ATOM      7  N   ASN A   1      18.308  22.296  19.054  0.00  0.00    -0.238 NA
ATOM      8  H   ASN A   1      17.602  22.716  19.692  0.00  0.00    +0.142 HD
ENDBRANCH   6   7
BRANCH   6   9
ATOM      9  CB  ASN A   1      17.171  20.195  18.584  0.00  0.00    +0.111 C 
BRANCH   9  10
ATOM     10  CG  ASN A   1      16.891  19.064  17.601  0.00  0.00    +0.221 C 
ATOM     11  ND2 ASN A   1      15.631  18.613  17.564  0.00  0.00    -0.329 N 
ATOM     12 HD21 ASN A   1      14.900  19.063  18.151  0.00  0.00    +0.145 HD
ATOM     13 HD22 ASN A   1      15.383  17.812  16.948  0.00  0.00    +0.145 HD
ATOM     14  OD1 ASN A   1      17.807  18.583  16.937  0.00  0.00    -0.275 OA
ENDBRANCH   9  10
ENDBRANCH   6   9
ENDBRANCH   2   6
ENDBRANCH   1   4
BRANCH   1  15
ATOM     15  C   ASP A   2      16.025  21.996  13.498  0.00  0.00    +0.241 C 
ATOM     16  O   ASP A   2      16.892  21.150  13.216  0.00  0.00    -0.273 OA
ATOM     17  N   TYR A   3      15.062  22.378  12.666  0.00  0.00    -0.298 N 
ATOM     18  H   TYR A   3      14.361  23.067  13.005  0.00  0.00    +0.150 HD
BRANCH  17  19
ATOM     19  CA  TYR A   3      14.940  21.877  11.298  0.00  0.00    +0.141 C 
BRANCH  19  20
ATOM     20  C   TYR A   3      15.052  23.040  10.307  0.00  0.00    +0.227 C 
ATOM     21  O   TYR A   3      14.948  24.230  10.673  0.00  0.00    -0.286 OA
ENDBRANCH  19  20
BRANCH  19  22
ATOM     22  CB  TYR A   3      13.589  21.165  11.101  0.00  0.00    +0.054 C 
BRANCH  22  23
ATOM     23  CG  TYR A   3      12.413  22.101  11.178  0.00  0.00    -0.020 A 
ATOM     24  CD2 TYR A   3      11.815  22.421  12.383  0.00  0.00    -0.001 A 
ATOM     25  CE2 TYR A   3      10.732  23.296  12.434  0.00  0.00    +0.036 A 
ATOM     26  CZ  TYR A   3      10.255  23.888  11.281  0.00  0.00    +0.134 A 
ATOM     27  CE1 TYR A   3      10.815  23.549  10.077  0.00  0.00    +0.036 A 
ATOM     28  CD1 TYR A   3      11.897  22.684  10.021  0.00  0.00    -0.001 A 
BRANCH  26  29
ATOM     29  OH  TYR A   3       9.209  24.786  11.379  0.00  0.00    -0.506 OA
ATOM     30  HH  TYR A   3       9.492  25.661  11.013  0.00  0.00    +0.292 HD
ENDBRANCH  26  29
ENDBRANCH  22  23
ENDBRANCH  19  22
ENDBRANCH  17  19
ENDBRANCH   1  15
BRANCH   1  31
ATOM     31  CB  ASP A   2      16.401  24.205  14.740  0.00  0.00    +0.143 C 
BRANCH  31  32
ATOM     32  CG  ASP A   2      15.198  25.110  14.596  0.00  0.00    +0.367 C 
ATOM     33  OD2 ASP A   2      15.286  26.311  15.007  0.00  0.00    -0.246 OA
ATOM     34  OD1 ASP A   2      14.147  24.662  14.069  0.00  0.00    -0.246 OA
ENDBRANCH  31  32
ENDBRANCH   1  31
TORSDOF 13
REMARK  Name = ../refined-set-2016/1v0k/1v0k_pocket.pdb
REMARK  131 active torsions:
REMARK  status: ('A' for Active; 'I' for Inactive)
REMARK    1  A    between atoms: _1  and  _3
REMARK    2  A    between atoms: _3  and  _4
REMARK    3  A    between atoms: _7  and  _9
REMARK    4  A    between atoms: _9  and  _10
REMARK    5  A    between atoms: _13  and  _15
REMARK    6  A    between atoms: _15  and  _16
REMARK    7  A    between atoms: _15  and  _18
REMARK    8  A    between atoms: _18  and  _19
REMARK    9  A    between atoms: _19  and  _20
REMARK   10  A    between atoms: _20  and  _21
REMARK   11  A    between atoms: _30  and  _32
REMARK   12  A    between atoms: _32  and  _33
REMARK   13  A    between atoms: _32  and  _35
REMARK   14  A    between atoms: _35  and  _36
REMARK   15  A    between atoms: _39  and  _41
REMARK   16  A    between atoms: _41  and  _42
REMARK   17  A    between atoms: _45  and  _47
REMARK   18  A    between atoms: _47  and  _48
REMARK   19  A    between atoms: _47  and  _50
REMARK   20  A    between atoms: _50  and  _51
REMARK   21  A    between atoms: _51  and  _52
REMARK   22  A    between atoms: _55  and  _57
REMARK   23  A    between atoms: _57  and  _58
REMARK   24  A    between atoms: _57  and  _60
REMARK   25  A    between atoms: _60  and  _61
REMARK   26  A    between atoms: _66  and  _68
REMARK   27  A    between atoms: _68  and  _69
REMARK   28  A    between atoms: _68  and  _71
REMARK   29  A    between atoms: _71  and  _72
REMARK   30  A    between atoms: _72  and  _73
REMARK   31  A    between atoms: _73  and  _74
REMARK   32  A    between atoms: _74  and  _75
REMARK   33  A    between atoms: _79  and  _81
REMARK   34  A    between atoms: _81  and  _82
REMARK   35  A    between atoms: _81  and  _84
REMARK   36  A    between atoms: _84  and  _85
REMARK   37  A    between atoms: _85  and  _86
REMARK   38  A    between atoms: _86  and  _87
REMARK   39  A    between atoms: _96  and  _98
REMARK   40  A    between atoms: _98  and  _99
REMARK   41  A    between atoms: _98  and  _101
REMARK   42  A    between atoms: _101  and  _102
REMARK   43  A    between atoms: _107  and  _109
REMARK   44  A    between atoms: _109  and  _110
REMARK   45  A    between atoms: _109  and  _112
REMARK   46  A    between atoms: _112  and  _113
REMARK   47  A    between atoms: _116  and  _118
REMARK   48  A    between atoms: _118  and  _119
REMARK   49  A    between atoms: _118  and  _121
REMARK   50  A    between atoms: _121  and  _122
REMARK   51  A    between atoms: _132  and  _134
REMARK   52  A    between atoms: _134  and  _135
REMARK   53  A    between atoms: _134  and  _137
REMARK   54  A    between atoms: _137  and  _138
REMARK   55  A    between atoms: _140  and  _142
REMARK   56  A    between atoms: _142  and  _143
REMARK   57  A    between atoms: _142  and  _145
REMARK   58  A    between atoms: _145  and  _146
REMARK   59  A    between atoms: _146  and  _147
REMARK   60  A    between atoms: _152  and  _154
REMARK   61  A    between atoms: _154  and  _155
REMARK   62  A    between atoms: _154  and  _157
REMARK   63  A    between atoms: _157  and  _158
REMARK   64  A    between atoms: _161  and  _163
REMARK   65  A    between atoms: _163  and  _164
REMARK   66  A    between atoms: _163  and  _166
REMARK   67  A    between atoms: _166  and  _167
REMARK   68  A    between atoms: _172  and  _174
REMARK   69  A    between atoms: _174  and  _175
REMARK   70  A    between atoms: _174  and  _177
REMARK   71  A    between atoms: _177  and  _178
REMARK   72  A    between atoms: _178  and  _179
REMARK   73  A    between atoms: _182  and  _184
REMARK   74  A    between atoms: _184  and  _185
REMARK   75  A    between atoms: _184  and  _187
REMARK   76  A    between atoms: _187  and  _188
REMARK   77  A    between atoms: _193  and  _195
REMARK   78  A    between atoms: _195  and  _196
REMARK   79  A    between atoms: _195  and  _198
REMARK   80  A    between atoms: _198  and  _199
REMARK   81  A    between atoms: _202  and  _204
REMARK   82  A    between atoms: _204  and  _205
REMARK   83  A    between atoms: _204  and  _207
REMARK   84  A    between atoms: _207  and  _208
REMARK   85  A    between atoms: _213  and  _214
REMARK   86  A    between atoms: _216  and  _218
REMARK   87  A    between atoms: _218  and  _219
REMARK   88  A    between atoms: _218  and  _221
REMARK   89  A    between atoms: _221  and  _222
REMARK   90  A    between atoms: _222  and  _223
REMARK   91  A    between atoms: _228  and  _230
REMARK   92  A    between atoms: _230  and  _231
REMARK   93  A    between atoms: _230  and  _233
REMARK   94  A    between atoms: _233  and  _234
REMARK   95  A    between atoms: _239  and  _241
REMARK   96  A    between atoms: _241  and  _242
REMARK   97  A    between atoms: _241  and  _244
REMARK   98  A    between atoms: _244  and  _245
REMARK   99  A    between atoms: _248  and  _250
REMARK  100  A    between atoms: _250  and  _251
REMARK  101  A    between atoms: _250  and  _253
REMARK  102  A    between atoms: _253  and  _254
REMARK  103  A    between atoms: _254  and  _255
REMARK  104  A    between atoms: _258  and  _260
REMARK  105  A    between atoms: _260  and  _261
REMARK  106  A    between atoms: _260  and  _263
REMARK  107  A    between atoms: _263  and  _264
REMARK  108  A    between atoms: _267  and  _269
REMARK  109  A    between atoms: _269  and  _270
REMARK  110  A    between atoms: _269  and  _272
REMARK  111  A    between atoms: _272  and  _273
REMARK  112  A    between atoms: _283  and  _285
REMARK  113  A    between atoms: _285  and  _286
REMARK  114  A    between atoms: _288  and  _290
REMARK  115  A    between atoms: _290  and  _291
REMARK  116  A    between atoms: _290  and  _293
REMARK  117  A    between atoms: _293  and  _294
REMARK  118  A    between atoms: _297  and  _299
REMARK  119  A    between atoms: _299  and  _300
REMARK  120  A    between atoms: _299  and  _302
REMARK  121  A    between atoms: _302  and  _303
REMARK  122  A    between atoms: _305  and  _307
REMARK  123  A    between atoms: _307  and  _308
REMARK  124  A    between atoms: _307  and  _310
REMARK  125  A    between atoms: _310  and  _311
REMARK  126  A    between atoms: _321  and  _323
REMARK  127  A    between atoms: _323  and  _324
REMARK  128  A    between atoms: _323  and  _326
REMARK  129  A    between atoms: _326  and  _327
REMARK  130  A    between atoms: _327  and  _328
REMARK  131  A    between atoms: _328  and  _329
REMARK                            x       y       z     vdW  Elec       q    Type
REMARK                         _______ _______ _______ _____ _____    ______ ____
ROOT
ATOM      1  CB  GLN A   1      15.456  18.090  12.705  0.00  0.00    +0.035 C 
ENDROOT
BRANCH   1   2
ATOM      2  CA  GLN A   1      16.842  17.475  12.583  0.00  0.00    +0.134 C 
BRANCH   2   3
ATOM      3  N   GLN A   1      17.893  18.484  12.672  0.00  0.00    -0.239 NA
ATOM      4  H   GLN A   1      17.639  19.484  12.801  0.00  0.00    +0.142 HD
ENDBRANCH   2   3
BRANCH   2   5
ATOM      5  C   GLN A   1      16.954  16.686  11.286  0.00  0.00    +0.224 C 
ATOM      6  O   GLN A   1      16.718  15.478  11.291  0.00  0.00    -0.287 OA
ENDBRANCH   2   5
ENDBRANCH   1   2
BRANCH   1   7
ATOM      7  CG  GLN A   1      15.126  18.581  14.103  0.00  0.00    +0.087 C 
BRANCH   7   8
ATOM      8  CD  GLN A   1      13.720  19.111  14.195  0.00  0.00    +0.219 C 
ATOM      9  NE2 GLN A   1      13.439  19.918  15.241  0.00  0.00    -0.329 N 
ATOM     10 HE21 GLN A   1      14.169  20.119  15.954  0.00  0.00    +0.145 HD
ATOM     11 HE22 GLN A   1      12.492  20.339  15.334  0.00  0.00    +0.145 HD
ATOM     12  OE1 GLN A   1      12.874  18.853  13.331  0.00  0.00    -0.275 OA
ENDBRANCH   7   8
ENDBRANCH   1   7
TORSDOF 5
REMARK  Name = ../refined-set-2016/1v0k/1v0k_pocket.pdb
REMARK  131 active torsions:
REMARK  status: ('A' for Active; 'I' for Inactive)
REMARK    1  A    between atoms: _1  and  _3
REMARK    2  A    between atoms: _3  and  _4
REMARK    3  A    between atoms: _7  and  _9
REMARK    4  A    between atoms: _9  and  _10
REMARK    5  A    between atoms: _13  and  _15
REMARK    6  A    between atoms: _15  and  _16
REMARK    7  A    between atoms: _15  and  _18
REMARK    8  A    between atoms: _18  and  _19
REMARK    9  A    between atoms: _19  and  _20
REMARK   10  A    between atoms: _20  and  _21
REMARK   11  A    between atoms: _30  and  _32
REMARK   12  A    between atoms: _32  and  _33
REMARK   13  A    between atoms: _32  and  _35
REMARK   14  A    between atoms: _35  and  _36
REMARK   15  A    between atoms: _39  and  _41
REMARK   16  A    between atoms: _41  and  _42
REMARK   17  A    between atoms: _45  and  _47
REMARK   18  A    between atoms: _47  and  _48
REMARK   19  A    between atoms: _47  and  _50
REMARK   20  A    between atoms: _50  and  _51
REMARK   21  A    between atoms: _51  and  _52
REMARK   22  A    between atoms: _55  and  _57
REMARK   23  A    between atoms: _57  and  _58
REMARK   24  A    between atoms: _57  and  _60
REMARK   25  A    between atoms: _60  and  _61
REMARK   26  A    between atoms: _66  and  _68
REMARK   27  A    between atoms: _68  and  _69
REMARK   28  A    between atoms: _68  and  _71
REMARK   29  A    between atoms: _71  and  _72
REMARK   30  A    between atoms: _72  and  _73
REMARK   31  A    between atoms: _73  and  _74
REMARK   32  A    between atoms: _74  and  _75
REMARK   33  A    between atoms: _79  and  _81
REMARK   34  A    between atoms: _81  and  _82
REMARK   35  A    between atoms: _81  and  _84
REMARK   36  A    between atoms: _84  and  _85
REMARK   37  A    between atoms: _85  and  _86
REMARK   38  A    between atoms: _86  and  _87
REMARK   39  A    between atoms: _96  and  _98
REMARK   40  A    between atoms: _98  and  _99
REMARK   41  A    between atoms: _98  and  _101
REMARK   42  A    between atoms: _101  and  _102
REMARK   43  A    between atoms: _107  and  _109
REMARK   44  A    between atoms: _109  and  _110
REMARK   45  A    between atoms: _109  and  _112
REMARK   46  A    between atoms: _112  and  _113
REMARK   47  A    between atoms: _116  and  _118
REMARK   48  A    between atoms: _118  and  _119
REMARK   49  A    between atoms: _118  and  _121
REMARK   50  A    between atoms: _121  and  _122
REMARK   51  A    between atoms: _132  and  _134
REMARK   52  A    between atoms: _134  and  _135
REMARK   53  A    between atoms: _134  and  _137
REMARK   54  A    between atoms: _137  and  _138
REMARK   55  A    between atoms: _140  and  _142
REMARK   56  A    between atoms: _142  and  _143
REMARK   57  A    between atoms: _142  and  _145
REMARK   58  A    between atoms: _145  and  _146
REMARK   59  A    between atoms: _146  and  _147
REMARK   60  A    between atoms: _152  and  _154
REMARK   61  A    between atoms: _154  and  _155
REMARK   62  A    between atoms: _154  and  _157
REMARK   63  A    between atoms: _157  and  _158
REMARK   64  A    between atoms: _161  and  _163
REMARK   65  A    between atoms: _163  and  _164
REMARK   66  A    between atoms: _163  and  _166
REMARK   67  A    between atoms: _166  and  _167
REMARK   68  A    between atoms: _172  and  _174
REMARK   69  A    between atoms: _174  and  _175
REMARK   70  A    between atoms: _174  and  _177
REMARK   71  A    between atoms: _177  and  _178
REMARK   72  A    between atoms: _178  and  _179
REMARK   73  A    between atoms: _182  and  _184
REMARK   74  A    between atoms: _184  and  _185
REMARK   75  A    between atoms: _184  and  _187
REMARK   76  A    between atoms: _187  and  _188
REMARK   77  A    between atoms: _193  and  _195
REMARK   78  A    between atoms: _195  and  _196
REMARK   79  A    between atoms: _195  and  _198
REMARK   80  A    between atoms: _198  and  _199
REMARK   81  A    between atoms: _202  and  _204
REMARK   82  A    between atoms: _204  and  _205
REMARK   83  A    between atoms: _204  and  _207
REMARK   84  A    between atoms: _207  and  _208
REMARK   85  A    between atoms: _213  and  _214
REMARK   86  A    between atoms: _216  and  _218
REMARK   87  A    between atoms: _218  and  _219
REMARK   88  A    between atoms: _218  and  _221
REMARK   89  A    between atoms: _221  and  _222
REMARK   90  A    between atoms: _222  and  _223
REMARK   91  A    between atoms: _228  and  _230
REMARK   92  A    between atoms: _230  and  _231
REMARK   93  A    between atoms: _230  and  _233
REMARK   94  A    between atoms: _233  and  _234
REMARK   95  A    between atoms: _239  and  _241
REMARK   96  A    between atoms: _241  and  _242
REMARK   97  A    between atoms: _241  and  _244
REMARK   98  A    between atoms: _244  and  _245
REMARK   99  A    between atoms: _248  and  _250
REMARK  100  A    between atoms: _250  and  _251
REMARK  101  A    between atoms: _250  and  _253
REMARK  102  A    between atoms: _253  and  _254
REMARK  103  A    between atoms: _254  and  _255
REMARK  104  A    between atoms: _258  and  _260
REMARK  105  A    between atoms: _260  and  _261
REMARK  106  A    between atoms: _260  and  _263
REMARK  107  A    between atoms: _263  and  _264
REMARK  108  A    between atoms: _267  and  _269
REMARK  109  A    between atoms: _269  and  _270
REMARK  110  A    between atoms: _269  and  _272
REMARK  111  A    between atoms: _272  and  _273
REMARK  112  A    between atoms: _283  and  _285
REMARK  113  A    between atoms: _285  and  _286
REMARK  114  A    between atoms: _288  and  _290
REMARK  115  A    between atoms: _290  and  _291
REMARK  116  A    between atoms: _290  and  _293
REMARK  117  A    between atoms: _293  and  _294
REMARK  118  A    between atoms: _297  and  _299
REMARK  119  A    between atoms: _299  and  _300
REMARK  120  A    between atoms: _299  and  _302
REMARK  121  A    between atoms: _302  and  _303
REMARK  122  A    between atoms: _305  and  _307
REMARK  123  A    between atoms: _307  and  _308
REMARK  124  A    between atoms: _307  and  _310
REMARK  125  A    between atoms: _310  and  _311
REMARK  126  A    between atoms: _321  and  _323
REMARK  127  A    between atoms: _323  and  _324
REMARK  128  A    between atoms: _323  and  _326
REMARK  129  A    between atoms: _326  and  _327
REMARK  130  A    between atoms: _327  and  _328
REMARK  131  A    between atoms: _328  and  _329
REMARK                            x       y       z     vdW  Elec       q    Type
REMARK                         _______ _______ _______ _____ _____    ______ ____
ROOT
ATOM      1  CB  HIS A   1      12.704  16.726   8.472  0.00  0.00    +0.072 C 
ENDROOT
BRANCH   1   2
ATOM      2  CG  HIS A   1      12.509  16.148   9.837  0.00  0.00    +0.082 A 
ATOM      3  CD2 HIS A   1      12.524  16.716  11.074  0.00  0.00    +0.115 A 
ATOM      4  NE2 HIS A   1      12.352  15.705  11.979  0.00  0.00    -0.221 NA
ATOM      5  CE1 HIS A   1      12.227  14.564  11.319  0.00  0.00    +0.199 A 
ATOM      6  ND1 HIS A   1      12.305  14.801  10.022  0.00  0.00    -0.227 NA
ENDBRANCH   1   2
BRANCH   1   7
ATOM      7  CA  HIS A   1      13.943  16.191   7.759  0.00  0.00    +0.139 C 
BRANCH   7   8
ATOM      8  N   HIS A   1      15.162  16.636   8.415  0.00  0.00    -0.239 NA
ATOM      9  H   HIS A   1      15.146  17.533   8.942  0.00  0.00    +0.142 HD
ENDBRANCH   7   8
BRANCH   7  10
ATOM     10  C   HIS A   1      13.947  16.665   6.305  0.00  0.00    +0.224 C 
ATOM     11  O   HIS A   1      13.375  17.721   5.963  0.00  0.00    -0.287 OA
ENDBRANCH   7  10
ENDBRANCH   1   7
TORSDOF 4
REMARK  Name = ../refined-set-2016/1v0k/1v0k_pocket.pdb
REMARK  131 active torsions:
REMARK  status: ('A' for Active; 'I' for Inactive)
REMARK    1  A    between atoms: _1  and  _3
REMARK    2  A    between atoms: _3  and  _4
REMARK    3  A    between atoms: _7  and  _9
REMARK    4  A    between atoms: _9  and  _10
REMARK    5  A    between atoms: _13  and  _15
REMARK    6  A    between atoms: _15  and  _16
REMARK    7  A    between atoms: _15  and  _18
REMARK    8  A    between atoms: _18  and  _19
REMARK    9  A    between atoms: _19  and  _20
REMARK   10  A    between atoms: _20  and  _21
REMARK   11  A    between atoms: _30  and  _32
REMARK   12  A    between atoms: _32  and  _33
REMARK   13  A    between atoms: _32  and  _35
REMARK   14  A    between atoms: _35  and  _36
REMARK   15  A    between atoms: _39  and  _41
REMARK   16  A    between atoms: _41  and  _42
REMARK   17  A    between atoms: _45  and  _47
REMARK   18  A    between atoms: _47  and  _48
REMARK   19  A    between atoms: _47  and  _50
REMARK   20  A    between atoms: _50  and  _51
REMARK   21  A    between atoms: _51  and  _52
REMARK   22  A    between atoms: _55  and  _57
REMARK   23  A    between atoms: _57  and  _58
REMARK   24  A    between atoms: _57  and  _60
REMARK   25  A    between atoms: _60  and  _61
REMARK   26  A    between atoms: _66  and  _68
REMARK   27  A    between atoms: _68  and  _69
REMARK   28  A    between atoms: _68  and  _71
REMARK   29  A    between atoms: _71  and  _72
REMARK   30  A    between atoms: _72  and  _73
REMARK   31  A    between atoms: _73  and  _74
REMARK   32  A    between atoms: _74  and  _75
REMARK   33  A    between atoms: _79  and  _81
REMARK   34  A    between atoms: _81  and  _82
REMARK   35  A    between atoms: _81  and  _84
REMARK   36  A    between atoms: _84  and  _85
REMARK   37  A    between atoms: _85  and  _86
REMARK   38  A    between atoms: _86  and  _87
REMARK   39  A    between atoms: _96  and  _98
REMARK   40  A    between atoms: _98  and  _99
REMARK   41  A    between atoms: _98  and  _101
REMARK   42  A    between atoms: _101  and  _102
REMARK   43  A    between atoms: _107  and  _109
REMARK   44  A    between atoms: _109  and  _110
REMARK   45  A    between atoms: _109  and  _112
REMARK   46  A    between atoms: _112  and  _113
REMARK   47  A    between atoms: _116  and  _118
REMARK   48  A    between atoms: _118  and  _119
REMARK   49  A    between atoms: _118  and  _121
REMARK   50  A    between atoms: _121  and  _122
REMARK   51  A    between atoms: _132  and  _134
REMARK   52  A    between atoms: _134  and  _135
REMARK   53  A    between atoms: _134  and  _137
REMARK   54  A    between atoms: _137  and  _138
REMARK   55  A    between atoms: _140  and  _142
REMARK   56  A    between atoms: _142  and  _143
REMARK   57  A    between atoms: _142  and  _145
REMARK   58  A    between atoms: _145  and  _146
REMARK   59  A    between atoms: _146  and  _147
REMARK   60  A    between atoms: _152  and  _154
REMARK   61  A    between atoms: _154  and  _155
REMARK   62  A    between atoms: _154  and  _157
REMARK   63  A    between atoms: _157  and  _158
REMARK   64  A    between atoms: _161  and  _163
REMARK   65  A    between atoms: _163  and  _164
REMARK   66  A    between atoms: _163  and  _166
REMARK   67  A    between atoms: _166  and  _167
REMARK   68  A    between atoms: _172  and  _174
REMARK   69  A    between atoms: _174  and  _175
REMARK   70  A    between atoms: _174  and  _177
REMARK   71  A    between atoms: _177  and  _178
REMARK   72  A    between atoms: _178  and  _179
REMARK   73  A    between atoms: _182  and  _184
REMARK   74  A    between atoms: _184  and  _185
REMARK   75  A    between atoms: _184  and  _187
REMARK   76  A    between atoms: _187  and  _188
REMARK   77  A    between atoms: _193  and  _195
REMARK   78  A    between atoms: _195  and  _196
REMARK   79  A    between atoms: _195  and  _198
REMARK   80  A    between atoms: _198  and  _199
REMARK   81  A    between atoms: _202  and  _204
REMARK   82  A    between atoms: _204  and  _205
REMARK   83  A    between atoms: _204  and  _207
REMARK   84  A    between atoms: _207  and  _208
REMARK   85  A    between atoms: _213  and  _214
REMARK   86  A    between atoms: _216  and  _218
REMARK   87  A    between atoms: _218  and  _219
REMARK   88  A    between atoms: _218  and  _221
REMARK   89  A    between atoms: _221  and  _222
REMARK   90  A    between atoms: _222  and  _223
REMARK   91  A    between atoms: _228  and  _230
REMARK   92  A    between atoms: _230  and  _231
REMARK   93  A    between atoms: _230  and  _233
REMARK   94  A    between atoms: _233  and  _234
REMARK   95  A    between atoms: _239  and  _241
REMARK   96  A    between atoms: _241  and  _242
REMARK   97  A    between atoms: _241  and  _244
REMARK   98  A    between atoms: _244  and  _245
REMARK   99  A    between atoms: _248  and  _250
REMARK  100  A    between atoms: _250  and  _251
REMARK  101  A    between atoms: _250  and  _253
REMARK  102  A    between atoms: _253  and  _254
REMARK  103  A    between atoms: _254  and  _255
REMARK  104  A    between atoms: _258  and  _260
REMARK  105  A    between atoms: _260  and  _261
REMARK  106  A    between atoms: _260  and  _263
REMARK  107  A    between atoms: _263  and  _264
REMARK  108  A    between atoms: _267  and  _269
REMARK  109  A    between atoms: _269  and  _270
REMARK  110  A    between atoms: _269  and  _272
REMARK  111  A    between atoms: _272  and  _273
REMARK  112  A    between atoms: _283  and  _285
REMARK  113  A    between atoms: _285  and  _286
REMARK  114  A    between atoms: _288  and  _290
REMARK  115  A    between atoms: _290  and  _291
REMARK  116  A    between atoms: _290  and  _293
REMARK  117  A    between atoms: _293  and  _294
REMARK  118  A    between atoms: _297  and  _299
REMARK  119  A    between atoms: _299  and  _300
REMARK  120  A    between atoms: _299  and  _302
REMARK  121  A    between atoms: _302  and  _303
REMARK  122  A    between atoms: _305  and  _307
REMARK  123  A    between atoms: _307  and  _308
REMARK  124  A    between atoms: _307  and  _310
REMARK  125  A    between atoms: _310  and  _311
REMARK  126  A    between atoms: _321  and  _323
REMARK  127  A    between atoms: _323  and  _324
REMARK  128  A    between atoms: _323  and  _326
REMARK  129  A    between atoms: _326  and  _327
REMARK  130  A    between atoms: _327  and  _328
REMARK  131  A    between atoms: _328  and  _329
REMARK                            x       y       z     vdW  Elec       q    Type
REMARK                         _______ _______ _______ _____ _____    ______ ____
ROOT
ATOM      1  C   THR A   1      17.711  13.464  14.849  0.00  0.00    +0.241 C 
ATOM      2  O   THR A   1      17.184  12.686  15.644  0.00  0.00    -0.274 OA
ATOM      3  N   GLU A   2      17.167  13.740  13.666  0.00  0.00    -0.298 N 
ATOM      4  H   GLU A   2      17.698  14.316  12.982  0.00  0.00    +0.150 HD
ENDROOT
BRANCH   1   5
ATOM      5  CA  THR A   1      19.017  14.132  15.238  0.00  0.00    +0.172 C 
BRANCH   5   6
ATOM      6  N   THR A   1      19.853  14.597  14.145  0.00  0.00    -0.236 NA
ATOM      7  H   THR A   1      19.595  15.464  13.631  0.00  0.00    +0.142 HD
ENDBRANCH   5   6
BRANCH   5   8
ATOM      8  CB  THR A   1      18.695  15.294  16.182  0.00  0.00    +0.135 C 
ATOM      9  CG2 THR A   1      19.937  15.807  16.867  0.00  0.00    +0.034 C 
BRANCH   8  10
ATOM     10  OG1 THR A   1      18.128  16.347  15.382  0.00  0.00    -0.383 OA
ATOM     11  HG1 THR A   1      17.907  17.118  15.962  0.00  0.00    +0.210 HD
ENDBRANCH   8  10
ENDBRANCH   5   8
ENDBRANCH   1   5
BRANCH   3  12
ATOM     12  CA  GLU A   2      15.833  13.246  13.310  0.00  0.00    +0.137 C 
BRANCH  12  13
ATOM     13  C   GLU A   2      15.734  12.909  11.810  0.00  0.00    +0.227 C 
ATOM     14  O   GLU A   2      14.736  13.159  11.159  0.00  0.00    -0.286 OA
ENDBRANCH  12  13
BRANCH  12  15
ATOM     15  CB  GLU A   2      14.731  14.229  13.694  0.00  0.00    +0.039 C 
BRANCH  15  16
ATOM     16  CG  GLU A   2      14.809  14.744  15.114  0.00  0.00    +0.116 C 
BRANCH  16  17
ATOM     17  CD  GLU A   2      13.689  15.680  15.483  0.00  0.00    +0.365 C 
ATOM     18  OE2 GLU A   2      13.811  16.312  16.623  0.00  0.00    -0.246 OA
ATOM     19  OE1 GLU A   2      12.733  15.816  14.738  0.00  0.00    -0.246 OA
ENDBRANCH  16  17
ENDBRANCH  15  16
ENDBRANCH  12  15
ENDBRANCH   3  12
TORSDOF 9
REMARK  Name = ../refined-set-2016/1v0k/1v0k_pocket.pdb
REMARK  131 active torsions:
REMARK  status: ('A' for Active; 'I' for Inactive)
REMARK    1  A    between atoms: _1  and  _3
REMARK    2  A    between atoms: _3  and  _4
REMARK    3  A    between atoms: _7  and  _9
REMARK    4  A    between atoms: _9  and  _10
REMARK    5  A    between atoms: _13  and  _15
REMARK    6  A    between atoms: _15  and  _16
REMARK    7  A    between atoms: _15  and  _18
REMARK    8  A    between atoms: _18  and  _19
REMARK    9  A    between atoms: _19  and  _20
REMARK   10  A    between atoms: _20  and  _21
REMARK   11  A    between atoms: _30  and  _32
REMARK   12  A    between atoms: _32  and  _33
REMARK   13  A    between atoms: _32  and  _35
REMARK   14  A    between atoms: _35  and  _36
REMARK   15  A    between atoms: _39  and  _41
REMARK   16  A    between atoms: _41  and  _42
REMARK   17  A    between atoms: _45  and  _47
REMARK   18  A    between atoms: _47  and  _48
REMARK   19  A    between atoms: _47  and  _50
REMARK   20  A    between atoms: _50  and  _51
REMARK   21  A    between atoms: _51  and  _52
REMARK   22  A    between atoms: _55  and  _57
REMARK   23  A    between atoms: _57  and  _58
REMARK   24  A    between atoms: _57  and  _60
REMARK   25  A    between atoms: _60  and  _61
REMARK   26  A    between atoms: _66  and  _68
REMARK   27  A    between atoms: _68  and  _69
REMARK   28  A    between atoms: _68  and  _71
REMARK   29  A    between atoms: _71  and  _72
REMARK   30  A    between atoms: _72  and  _73
REMARK   31  A    between atoms: _73  and  _74
REMARK   32  A    between atoms: _74  and  _75
REMARK   33  A    between atoms: _79  and  _81
REMARK   34  A    between atoms: _81  and  _82
REMARK   35  A    between atoms: _81  and  _84
REMARK   36  A    between atoms: _84  and  _85
REMARK   37  A    between atoms: _85  and  _86
REMARK   38  A    between atoms: _86  and  _87
REMARK   39  A    between atoms: _96  and  _98
REMARK   40  A    between atoms: _98  and  _99
REMARK   41  A    between atoms: _98  and  _101
REMARK   42  A    between atoms: _101  and  _102
REMARK   43  A    between atoms: _107  and  _109
REMARK   44  A    between atoms: _109  and  _110
REMARK   45  A    between atoms: _109  and  _112
REMARK   46  A    between atoms: _112  and  _113
REMARK   47  A    between atoms: _116  and  _118
REMARK   48  A    between atoms: _118  and  _119
REMARK   49  A    between atoms: _118  and  _121
REMARK   50  A    between atoms: _121  and  _122
REMARK   51  A    between atoms: _132  and  _134
REMARK   52  A    between atoms: _134  and  _135
REMARK   53  A    between atoms: _134  and  _137
REMARK   54  A    between atoms: _137  and  _138
REMARK   55  A    between atoms: _140  and  _142
REMARK   56  A    between atoms: _142  and  _143
REMARK   57  A    between atoms: _142  and  _145
REMARK   58  A    between atoms: _145  and  _146
REMARK   59  A    between atoms: _146  and  _147
REMARK   60  A    between atoms: _152  and  _154
REMARK   61  A    between atoms: _154  and  _155
REMARK   62  A    between atoms: _154  and  _157
REMARK   63  A    between atoms: _157  and  _158
REMARK   64  A    between atoms: _161  and  _163
REMARK   65  A    between atoms: _163  and  _164
REMARK   66  A    between atoms: _163  and  _166
REMARK   67  A    between atoms: _166  and  _167
REMARK   68  A    between atoms: _172  and  _174
REMARK   69  A    between atoms: _174  and  _175
REMARK   70  A    between atoms: _174  and  _177
REMARK   71  A    between atoms: _177  and  _178
REMARK   72  A    between atoms: _178  and  _179
REMARK   73  A    between atoms: _182  and  _184
REMARK   74  A    between atoms: _184  and  _185
REMARK   75  A    between atoms: _184  and  _187
REMARK   76  A    between atoms: _187  and  _188
REMARK   77  A    between atoms: _193  and  _195
REMARK   78  A    between atoms: _195  and  _196
REMARK   79  A    between atoms: _195  and  _198
REMARK   80  A    between atoms: _198  and  _199
REMARK   81  A    between atoms: _202  and  _204
REMARK   82  A    between atoms: _204  and  _205
REMARK   83  A    between atoms: _204  and  _207
REMARK   84  A    between atoms: _207  and  _208
REMARK   85  A    between atoms: _213  and  _214
REMARK   86  A    between atoms: _216  and  _218
REMARK   87  A    between atoms: _218  and  _219
REMARK   88  A    between atoms: _218  and  _221
REMARK   89  A    between atoms: _221  and  _222
REMARK   90  A    between atoms: _222  and  _223
REMARK   91  A    between atoms: _228  and  _230
REMARK   92  A    between atoms: _230  and  _231
REMARK   93  A    between atoms: _230  and  _233
REMARK   94  A    between atoms: _233  and  _234
REMARK   95  A    between atoms: _239  and  _241
REMARK   96  A    between atoms: _241  and  _242
REMARK   97  A    between atoms: _241  and  _244
REMARK   98  A    between atoms: _244  and  _245
REMARK   99  A    between atoms: _248  and  _250
REMARK  100  A    between atoms: _250  and  _251
REMARK  101  A    between atoms: _250  and  _253
REMARK  102  A    between atoms: _253  and  _254
REMARK  103  A    between atoms: _254  and  _255
REMARK  104  A    between atoms: _258  and  _260
REMARK  105  A    between atoms: _260  and  _261
REMARK  106  A    between atoms: _260  and  _263
REMARK  107  A    between atoms: _263  and  _264
REMARK  108  A    between atoms: _267  and  _269
REMARK  109  A    between atoms: _269  and  _270
REMARK  110  A    between atoms: _269  and  _272
REMARK  111  A    between atoms: _272  and  _273
REMARK  112  A    between atoms: _283  and  _285
REMARK  113  A    between atoms: _285  and  _286
REMARK  114  A    between atoms: _288  and  _290
REMARK  115  A    between atoms: _290  and  _291
REMARK  116  A    between atoms: _290  and  _293
REMARK  117  A    between atoms: _293  and  _294
REMARK  118  A    between atoms: _297  and  _299
REMARK  119  A    between atoms: _299  and  _300
REMARK  120  A    between atoms: _299  and  _302
REMARK  121  A    between atoms: _302  and  _303
REMARK  122  A    between atoms: _305  and  _307
REMARK  123  A    between atoms: _307  and  _308
REMARK  124  A    between atoms: _307  and  _310
REMARK  125  A    between atoms: _310  and  _311
REMARK  126  A    between atoms: _321  and  _323
REMARK  127  A    between atoms: _323  and  _324
REMARK  128  A    between atoms: _323  and  _326
REMARK  129  A    between atoms: _326  and  _327
REMARK  130  A    between atoms: _327  and  _328
REMARK  131  A    between atoms: _328  and  _329
REMARK                            x       y       z     vdW  Elec       q    Type
REMARK                         _______ _______ _______ _____ _____    ______ ____
ROOT
ATOM      1  CA  ASP A   1      14.358  11.034   7.364  0.00  0.00    +0.144 C 
ENDROOT
BRANCH   1   2
ATOM      2  N   ASP A   1      15.210  11.798   8.241  0.00  0.00    -0.239 NA
ATOM      3  H   ASP A   1      15.370  12.803   8.029  0.00  0.00    +0.142 HD
ENDBRANCH   1   2
BRANCH   1   4
ATOM      4  C   ASP A   1      14.376  11.779   6.020  0.00  0.00    +0.225 C 
ATOM      5  O   ASP A   1      14.697  12.970   5.955  0.00  0.00    -0.287 OA
ENDBRANCH   1   4
BRANCH   1   6
ATOM      6  CB  ASP A   1      12.967  10.746   7.934  0.00  0.00    +0.139 C 
BRANCH   6   7
ATOM      7  CG  ASP A   1      12.238  11.965   8.504  0.00  0.00    +0.367 C 
ATOM      8  OD2 ASP A   1      11.398  11.798   9.434  0.00  0.00    -0.246 OA
ATOM      9  OD1 ASP A   1      12.410  13.102   7.979  0.00  0.00    -0.246 OA
ENDBRANCH   6   7
ENDBRANCH   1   6
TORSDOF 4
REMARK  Name = ../refined-set-2016/1v0k/1v0k_pocket.pdb
REMARK  131 active torsions:
REMARK  status: ('A' for Active; 'I' for Inactive)
REMARK    1  A    between atoms: _1  and  _3
REMARK    2  A    between atoms: _3  and  _4
REMARK    3  A    between atoms: _7  and  _9
REMARK    4  A    between atoms: _9  and  _10
REMARK    5  A    between atoms: _13  and  _15
REMARK    6  A    between atoms: _15  and  _16
REMARK    7  A    between atoms: _15  and  _18
REMARK    8  A    between atoms: _18  and  _19
REMARK    9  A    between atoms: _19  and  _20
REMARK   10  A    between atoms: _20  and  _21
REMARK   11  A    between atoms: _30  and  _32
REMARK   12  A    between atoms: _32  and  _33
REMARK   13  A    between atoms: _32  and  _35
REMARK   14  A    between atoms: _35  and  _36
REMARK   15  A    between atoms: _39  and  _41
REMARK   16  A    between atoms: _41  and  _42
REMARK   17  A    between atoms: _45  and  _47
REMARK   18  A    between atoms: _47  and  _48
REMARK   19  A    between atoms: _47  and  _50
REMARK   20  A    between atoms: _50  and  _51
REMARK   21  A    between atoms: _51  and  _52
REMARK   22  A    between atoms: _55  and  _57
REMARK   23  A    between atoms: _57  and  _58
REMARK   24  A    between atoms: _57  and  _60
REMARK   25  A    between atoms: _60  and  _61
REMARK   26  A    between atoms: _66  and  _68
REMARK   27  A    between atoms: _68  and  _69
REMARK   28  A    between atoms: _68  and  _71
REMARK   29  A    between atoms: _71  and  _72
REMARK   30  A    between atoms: _72  and  _73
REMARK   31  A    between atoms: _73  and  _74
REMARK   32  A    between atoms: _74  and  _75
REMARK   33  A    between atoms: _79  and  _81
REMARK   34  A    between atoms: _81  and  _82
REMARK   35  A    between atoms: _81  and  _84
REMARK   36  A    between atoms: _84  and  _85
REMARK   37  A    between atoms: _85  and  _86
REMARK   38  A    between atoms: _86  and  _87
REMARK   39  A    between atoms: _96  and  _98
REMARK   40  A    between atoms: _98  and  _99
REMARK   41  A    between atoms: _98  and  _101
REMARK   42  A    between atoms: _101  and  _102
REMARK   43  A    between atoms: _107  and  _109
REMARK   44  A    between atoms: _109  and  _110
REMARK   45  A    between atoms: _109  and  _112
REMARK   46  A    between atoms: _112  and  _113
REMARK   47  A    between atoms: _116  and  _118
REMARK   48  A    between atoms: _118  and  _119
REMARK   49  A    between atoms: _118  and  _121
REMARK   50  A    between atoms: _121  and  _122
REMARK   51  A    between atoms: _132  and  _134
REMARK   52  A    between atoms: _134  and  _135
REMARK   53  A    between atoms: _134  and  _137
REMARK   54  A    between atoms: _137  and  _138
REMARK   55  A    between atoms: _140  and  _142
REMARK   56  A    between atoms: _142  and  _143
REMARK   57  A    between atoms: _142  and  _145
REMARK   58  A    between atoms: _145  and  _146
REMARK   59  A    between atoms: _146  and  _147
REMARK   60  A    between atoms: _152  and  _154
REMARK   61  A    between atoms: _154  and  _155
REMARK   62  A    between atoms: _154  and  _157
REMARK   63  A    between atoms: _157  and  _158
REMARK   64  A    between atoms: _161  and  _163
REMARK   65  A    between atoms: _163  and  _164
REMARK   66  A    between atoms: _163  and  _166
REMARK   67  A    between atoms: _166  and  _167
REMARK   68  A    between atoms: _172  and  _174
REMARK   69  A    between atoms: _174  and  _175
REMARK   70  A    between atoms: _174  and  _177
REMARK   71  A    between atoms: _177  and  _178
REMARK   72  A    between atoms: _178  and  _179
REMARK   73  A    between atoms: _182  and  _184
REMARK   74  A    between atoms: _184  and  _185
REMARK   75  A    between atoms: _184  and  _187
REMARK   76  A    between atoms: _187  and  _188
REMARK   77  A    between atoms: _193  and  _195
REMARK   78  A    between atoms: _195  and  _196
REMARK   79  A    between atoms: _195  and  _198
REMARK   80  A    between atoms: _198  and  _199
REMARK   81  A    between atoms: _202  and  _204
REMARK   82  A    between atoms: _204  and  _205
REMARK   83  A    between atoms: _204  and  _207
REMARK   84  A    between atoms: _207  and  _208
REMARK   85  A    between atoms: _213  and  _214
REMARK   86  A    between atoms: _216  and  _218
REMARK   87  A    between atoms: _218  and  _219
REMARK   88  A    between atoms: _218  and  _221
REMARK   89  A    between atoms: _221  and  _222
REMARK   90  A    between atoms: _222  and  _223
REMARK   91  A    between atoms: _228  and  _230
REMARK   92  A    between atoms: _230  and  _231
REMARK   93  A    between atoms: _230  and  _233
REMARK   94  A    between atoms: _233  and  _234
REMARK   95  A    between atoms: _239  and  _241
REMARK   96  A    between atoms: _241  and  _242
REMARK   97  A    between atoms: _241  and  _244
REMARK   98  A    between atoms: _244  and  _245
REMARK   99  A    between atoms: _248  and  _250
REMARK  100  A    between atoms: _250  and  _251
REMARK  101  A    between atoms: _250  and  _253
REMARK  102  A    between atoms: _253  and  _254
REMARK  103  A    between atoms: _254  and  _255
REMARK  104  A    between atoms: _258  and  _260
REMARK  105  A    between atoms: _260  and  _261
REMARK  106  A    between atoms: _260  and  _263
REMARK  107  A    between atoms: _263  and  _264
REMARK  108  A    between atoms: _267  and  _269
REMARK  109  A    between atoms: _269  and  _270
REMARK  110  A    between atoms: _269  and  _272
REMARK  111  A    between atoms: _272  and  _273
REMARK  112  A    between atoms: _283  and  _285
REMARK  113  A    between atoms: _285  and  _286
REMARK  114  A    between atoms: _288  and  _290
REMARK  115  A    between atoms: _290  and  _291
REMARK  116  A    between atoms: _290  and  _293
REMARK  117  A    between atoms: _293  and  _294
REMARK  118  A    between atoms: _297  and  _299
REMARK  119  A    between atoms: _299  and  _300
REMARK  120  A    between atoms: _299  and  _302
REMARK  121  A    between atoms: _302  and  _303
REMARK  122  A    between atoms: _305  and  _307
REMARK  123  A    between atoms: _307  and  _308
REMARK  124  A    between atoms: _307  and  _310
REMARK  125  A    between atoms: _310  and  _311
REMARK  126  A    between atoms: _321  and  _323
REMARK  127  A    between atoms: _323  and  _324
REMARK  128  A    between atoms: _323  and  _326
REMARK  129  A    between atoms: _326  and  _327
REMARK  130  A    between atoms: _327  and  _328
REMARK  131  A    between atoms: _328  and  _329
REMARK                            x       y       z     vdW  Elec       q    Type
REMARK                         _______ _______ _______ _____ _____    ______ ____
ROOT
ATOM      1  CB  TRP A   1      12.815  10.754  12.736  0.00  0.00    +0.054 C 
ENDROOT
BRANCH   1   2
ATOM      2  CG  TRP A   1      11.988  11.332  13.845  0.00  0.00    -0.002 A 
ATOM      3  CD2 TRP A   1      12.415  11.612  15.199  0.00  0.00    +0.013 A 
ATOM      4  CE2 TRP A   1      11.285  12.108  15.892  0.00  0.00    +0.056 A 
ATOM      5  CZ2 TRP A   1      11.333  12.481  17.248  0.00  0.00    +0.017 A 
ATOM      6  CH2 TRP A   1      12.542  12.365  17.877  0.00  0.00    +0.001 A 
ATOM      7  CZ3 TRP A   1      13.684  11.878  17.234  0.00  0.00    +0.000 A 
ATOM      8  NE1 TRP A   1      10.242  12.145  15.014  0.00  0.00    -0.352 N 
ATOM      9  HE1 TRP A   1       9.285  12.495  15.222  0.00  0.00    +0.166 HD
ATOM     10  CE3 TRP A   1      13.639  11.503  15.881  0.00  0.00    +0.001 A 
ATOM     11  CD1 TRP A   1      10.668  11.642  13.806  0.00  0.00    +0.068 A 
ENDBRANCH   1   2
BRANCH   1  12
ATOM     12  CA  TRP A   1      13.380   9.382  13.088  0.00  0.00    +0.149 C 
BRANCH  12  13
ATOM     13  C   TRP A   1      12.351   8.244  12.941  0.00  0.00    +0.239 C 
ATOM     14  N   GLY A   2      12.770   7.062  13.399  0.00  0.00    -0.297 N 
ATOM     15  H   GLY A   2      13.736   6.986  13.776  0.00  0.00    +0.150 HD
ATOM     16  O   TRP A   1      11.214   8.406  12.491  0.00  0.00    -0.274 OA
BRANCH  14  17
ATOM     17  CA  GLY A   2      11.923   5.868  13.392  0.00  0.00    +0.163 C 
BRANCH  17  18
ATOM     18  C   GLY A   2      12.637   4.674  12.769  0.00  0.00    +0.229 C 
ATOM     19  O   GLY A   2      13.730   4.778  12.218  0.00  0.00    -0.286 OA
ENDBRANCH  17  18
ENDBRANCH  14  17
ENDBRANCH  12  13
BRANCH  12  20
ATOM     20  N   TRP A   1      14.581   9.103  12.314  0.00  0.00    -0.238 NA
ATOM     21  H   TRP A   1      14.654   9.455  11.338  0.00  0.00    +0.142 HD
ENDBRANCH  12  20
ENDBRANCH   1  12
TORSDOF 6
REMARK  Name = ../refined-set-2016/1v0k/1v0k_pocket.pdb
REMARK  131 active torsions:
REMARK  status: ('A' for Active; 'I' for Inactive)
REMARK    1  A    between atoms: _1  and  _3
REMARK    2  A    between atoms: _3  and  _4
REMARK    3  A    between atoms: _7  and  _9
REMARK    4  A    between atoms: _9  and  _10
REMARK    5  A    between atoms: _13  and  _15
REMARK    6  A    between atoms: _15  and  _16
REMARK    7  A    between atoms: _15  and  _18
REMARK    8  A    between atoms: _18  and  _19
REMARK    9  A    between atoms: _19  and  _20
REMARK   10  A    between atoms: _20  and  _21
REMARK   11  A    between atoms: _30  and  _32
REMARK   12  A    between atoms: _32  and  _33
REMARK   13  A    between atoms: _32  and  _35
REMARK   14  A    between atoms: _35  and  _36
REMARK   15  A    between atoms: _39  and  _41
REMARK   16  A    between atoms: _41  and  _42
REMARK   17  A    between atoms: _45  and  _47
REMARK   18  A    between atoms: _47  and  _48
REMARK   19  A    between atoms: _47  and  _50
REMARK   20  A    between atoms: _50  and  _51
REMARK   21  A    between atoms: _51  and  _52
REMARK   22  A    between atoms: _55  and  _57
REMARK   23  A    between atoms: _57  and  _58
REMARK   24  A    between atoms: _57  and  _60
REMARK   25  A    between atoms: _60  and  _61
REMARK   26  A    between atoms: _66  and  _68
REMARK   27  A    between atoms: _68  and  _69
REMARK   28  A    between atoms: _68  and  _71
REMARK   29  A    between atoms: _71  and  _72
REMARK   30  A    between atoms: _72  and  _73
REMARK   31  A    between atoms: _73  and  _74
REMARK   32  A    between atoms: _74  and  _75
REMARK   33  A    between atoms: _79  and  _81
REMARK   34  A    between atoms: _81  and  _82
REMARK   35  A    between atoms: _81  and  _84
REMARK   36  A    between atoms: _84  and  _85
REMARK   37  A    between atoms: _85  and  _86
REMARK   38  A    between atoms: _86  and  _87
REMARK   39  A    between atoms: _96  and  _98
REMARK   40  A    between atoms: _98  and  _99
REMARK   41  A    between atoms: _98  and  _101
REMARK   42  A    between atoms: _101  and  _102
REMARK   43  A    between atoms: _107  and  _109
REMARK   44  A    between atoms: _109  and  _110
REMARK   45  A    between atoms: _109  and  _112
REMARK   46  A    between atoms: _112  and  _113
REMARK   47  A    between atoms: _116  and  _118
REMARK   48  A    between atoms: _118  and  _119
REMARK   49  A    between atoms: _118  and  _121
REMARK   50  A    between atoms: _121  and  _122
REMARK   51  A    between atoms: _132  and  _134
REMARK   52  A    between atoms: _134  and  _135
REMARK   53  A    between atoms: _134  and  _137
REMARK   54  A    between atoms: _137  and  _138
REMARK   55  A    between atoms: _140  and  _142
REMARK   56  A    between atoms: _142  and  _143
REMARK   57  A    between atoms: _142  and  _145
REMARK   58  A    between atoms: _145  and  _146
REMARK   59  A    between atoms: _146  and  _147
REMARK   60  A    between atoms: _152  and  _154
REMARK   61  A    between atoms: _154  and  _155
REMARK   62  A    between atoms: _154  and  _157
REMARK   63  A    between atoms: _157  and  _158
REMARK   64  A    between atoms: _161  and  _163
REMARK   65  A    between atoms: _163  and  _164
REMARK   66  A    between atoms: _163  and  _166
REMARK   67  A    between atoms: _166  and  _167
REMARK   68  A    between atoms: _172  and  _174
REMARK   69  A    between atoms: _174  and  _175
REMARK   70  A    between atoms: _174  and  _177
REMARK   71  A    between atoms: _177  and  _178
REMARK   72  A    between atoms: _178  and  _179
REMARK   73  A    between atoms: _182  and  _184
REMARK   74  A    between atoms: _184  and  _185
REMARK   75  A    between atoms: _184  and  _187
REMARK   76  A    between atoms: _187  and  _188
REMARK   77  A    between atoms: _193  and  _195
REMARK   78  A    between atoms: _195  and  _196
REMARK   79  A    between atoms: _195  and  _198
REMARK   80  A    between atoms: _198  and  _199
REMARK   81  A    between atoms: _202  and  _204
REMARK   82  A    between atoms: _204  and  _205
REMARK   83  A    between atoms: _204  and  _207
REMARK   84  A    between atoms: _207  and  _208
REMARK   85  A    between atoms: _213  and  _214
REMARK   86  A    between atoms: _216  and  _218
REMARK   87  A    between atoms: _218  and  _219
REMARK   88  A    between atoms: _218  and  _221
REMARK   89  A    between atoms: _221  and  _222
REMARK   90  A    between atoms: _222  and  _223
REMARK   91  A    between atoms: _228  and  _230
REMARK   92  A    between atoms: _230  and  _231
REMARK   93  A    between atoms: _230  and  _233
REMARK   94  A    between atoms: _233  and  _234
REMARK   95  A    between atoms: _239  and  _241
REMARK   96  A    between atoms: _241  and  _242
REMARK   97  A    between atoms: _241  and  _244
REMARK   98  A    between atoms: _244  and  _245
REMARK   99  A    between atoms: _248  and  _250
REMARK  100  A    between atoms: _250  and  _251
REMARK  101  A    between atoms: _250  and  _253
REMARK  102  A    between atoms: _253  and  _254
REMARK  103  A    between atoms: _254  and  _255
REMARK  104  A    between atoms: _258  and  _260
REMARK  105  A    between atoms: _260  and  _261
REMARK  106  A    between atoms: _260  and  _263
REMARK  107  A    between atoms: _263  and  _264
REMARK  108  A    between atoms: _267  and  _269
REMARK  109  A    between atoms: _269  and  _270
REMARK  110  A    between atoms: _269  and  _272
REMARK  111  A    between atoms: _272  and  _273
REMARK  112  A    between atoms: _283  and  _285
REMARK  113  A    between atoms: _285  and  _286
REMARK  114  A    between atoms: _288  and  _290
REMARK  115  A    between atoms: _290  and  _291
REMARK  116  A    between atoms: _290  and  _293
REMARK  117  A    between atoms: _293  and  _294
REMARK  118  A    between atoms: _297  and  _299
REMARK  119  A    between atoms: _299  and  _300
REMARK  120  A    between atoms: _299  and  _302
REMARK  121  A    between atoms: _302  and  _303
REMARK  122  A    between atoms: _305  and  _307
REMARK  123  A    between atoms: _307  and  _308
REMARK  124  A    between atoms: _307  and  _310
REMARK  125  A    between atoms: _310  and  _311
REMARK  126  A    between atoms: _321  and  _323
REMARK  127  A    between atoms: _323  and  _324
REMARK  128  A    between atoms: _323  and  _326
REMARK  129  A    between atoms: _326  and  _327
REMARK  130  A    between atoms: _327  and  _328
REMARK  131  A    between atoms: _328  and  _329
REMARK                            x       y       z     vdW  Elec       q    Type
REMARK                         _______ _______ _______ _____ _____    ______ ____
ROOT
ATOM      1  CA  TRP A   3       5.421  10.403  11.528  0.00  0.00    +0.153 C 
ENDROOT
BRANCH   1   3
ATOM      2  C   SER A   2       6.104   8.135  10.896  0.00  0.00    +0.243 C 
ATOM      3  N   TRP A   3       6.399   9.309  11.481  0.00  0.00    -0.297 N 
ATOM      4  H   TRP A   3       7.337   9.445  11.908  0.00  0.00    +0.150 HD
ATOM      5  O   SER A   2       4.993   7.875  10.440  0.00  0.00    -0.273 OA
BRANCH   2   6
ATOM      6  CA  SER A   2       7.281   7.220  10.693  0.00  0.00    +0.178 C 
BRANCH   6   9
ATOM      7  C   ASP A   1       6.824   5.314  12.119  0.00  0.00    +0.239 C 
ATOM      8  O   ASP A   1       6.861   6.011  13.140  0.00  0.00    -0.274 OA
ATOM      9  N   SER A   2       6.957   5.826  10.899  0.00  0.00    -0.295 N 
ATOM     10  H   SER A   2       6.825   5.209  10.073  0.00  0.00    +0.150 HD
BRANCH   7  11
ATOM     11  CA  ASP A   1       6.621   3.804  12.248  0.00  0.00    +0.156 C 
BRANCH  11  12
ATOM     12  N   ASP A   1       6.434   3.151  10.941  0.00  0.00    -0.238 NA
ATOM     13  H   ASP A   1       7.269   2.794  10.434  0.00  0.00    +0.142 HD
ENDBRANCH  11  12
BRANCH  11  14
ATOM     14  CB  ASP A   1       7.825   3.238  12.964  0.00  0.00    +0.140 C 
BRANCH  14  15
ATOM     15  CG  ASP A   1       7.705   1.736  13.207  0.00  0.00    +0.367 C 
ATOM     16  OD2 ASP A   1       6.657   1.286  13.719  0.00  0.00    -0.246 OA
ATOM     17  OD1 ASP A   1       8.717   1.053  12.910  0.00  0.00    -0.246 OA
ENDBRANCH  14  15
ENDBRANCH  11  14
ENDBRANCH   7  11
ENDBRANCH   6   9
BRANCH   6  18
ATOM     18  CB  SER A   2       7.791   7.414   9.253  0.00  0.00    +0.166 C 
BRANCH  18  19
ATOM     19  OG  SER A   2       8.048   8.786   8.965  0.00  0.00    -0.380 OA
ATOM     20  H   SER A   2       8.736   9.130   9.589  0.00  0.00    +0.211 HD
ENDBRANCH  18  19
ENDBRANCH   6  18
ENDBRANCH   2   6
ENDBRANCH   1   3
BRANCH   1  21
ATOM     21  C   TRP A   3       5.025  10.889  10.129  0.00  0.00    +0.241 C 
ATOM     22  O   TRP A   3       4.029  11.589  10.000  0.00  0.00    -0.273 OA
ATOM     23  N   ARG A   4       5.836  10.526   9.129  0.00  0.00    -0.298 N 
ATOM     24  H   ARG A   4       6.688   9.977   9.361  0.00  0.00    +0.150 HD
BRANCH  23  25
ATOM     25  CA  ARG A   4       5.589  10.859   7.736  0.00  0.00    +0.137 C 
BRANCH  25  26
ATOM     26  C   ARG A   4       5.621   9.585   6.885  0.00  0.00    +0.227 C 
ATOM     27  O   ARG A   4       6.235   9.514   5.822  0.00  0.00    -0.286 OA
ENDBRANCH  25  26
BRANCH  25  28
ATOM     28  CB  ARG A   4       6.588  11.899   7.268  0.00  0.00    +0.031 C 
BRANCH  28  29
ATOM     29  CG  ARG A   4       6.317  13.258   7.920  0.00  0.00    +0.045 C 
BRANCH  29  30
ATOM     30  CD  ARG A   4       7.240  14.353   7.483  0.00  0.00    +0.174 C 
BRANCH  30  31
ATOM     31  NE  ARG A   4       6.846  15.640   8.047  0.00  0.00    -0.265 N 
ATOM     32  HE  ARG A   4       5.958  15.690   8.586  0.00  0.00    +0.259 HD
ATOM     33  CZ  ARG A   4       7.562  16.751   7.908  0.00  0.00    +0.342 C 
ATOM     34  NH2 ARG A   4       7.159  17.882   8.465  0.00  0.00    -0.292 N 
ATOM     35 HH21 ARG A   4       6.277  17.905   9.016  0.00  0.00    +0.255 HD
ATOM     36 HH22 ARG A   4       7.724  18.748   8.352  0.00  0.00    +0.255 HD
ATOM     37  NH1 ARG A   4       8.699  16.713   7.247  0.00  0.00    -0.292 N 
ATOM     38 HH11 ARG A   4       9.264  17.579   7.134  0.00  0.00    +0.255 HD
ATOM     39 HH12 ARG A   4       9.032  15.817   6.837  0.00  0.00    +0.255 HD
ENDBRANCH  30  31
ENDBRANCH  29  30
ENDBRANCH  28  29
ENDBRANCH  25  28
ENDBRANCH  23  25
ENDBRANCH   1  21
BRANCH   1  40
ATOM     40  CB  TRP A   3       5.985  11.567  12.338  0.00  0.00    +0.057 C 
BRANCH  40  41
ATOM     41  CG  TRP A   3       7.108  12.346  11.712  0.00  0.00    -0.002 A 
ATOM     42  CD2 TRP A   3       7.208  13.769  11.673  0.00  0.00    +0.013 A 
ATOM     43  CE3 TRP A   3       6.394  14.809  12.139  0.00  0.00    +0.001 A 
ATOM     44  CZ3 TRP A   3       6.790  16.119  11.926  0.00  0.00    +0.000 A 
ATOM     45  CH2 TRP A   3       7.980  16.404  11.291  0.00  0.00    +0.001 A 
ATOM     46  CZ2 TRP A   3       8.809  15.410  10.831  0.00  0.00    +0.017 A 
ATOM     47  CE2 TRP A   3       8.402  14.089  11.018  0.00  0.00    +0.056 A 
ATOM     48  NE1 TRP A   3       9.015  12.913  10.654  0.00  0.00    -0.352 N 
ATOM     49  HE1 TRP A   3       9.916  12.823  10.143  0.00  0.00    +0.166 HD
ATOM     50  CD1 TRP A   3       8.219  11.874  11.089  0.00  0.00    +0.068 A 
ENDBRANCH  40  41
ENDBRANCH   1  40
TORSDOF 18
REMARK  Name = ../refined-set-2016/1v0k/1v0k_pocket.pdb
REMARK  131 active torsions:
REMARK  status: ('A' for Active; 'I' for Inactive)
REMARK    1  A    between atoms: _1  and  _3
REMARK    2  A    between atoms: _3  and  _4
REMARK    3  A    between atoms: _7  and  _9
REMARK    4  A    between atoms: _9  and  _10
REMARK    5  A    between atoms: _13  and  _15
REMARK    6  A    between atoms: _15  and  _16
REMARK    7  A    between atoms: _15  and  _18
REMARK    8  A    between atoms: _18  and  _19
REMARK    9  A    between atoms: _19  and  _20
REMARK   10  A    between atoms: _20  and  _21
REMARK   11  A    between atoms: _30  and  _32
REMARK   12  A    between atoms: _32  and  _33
REMARK   13  A    between atoms: _32  and  _35
REMARK   14  A    between atoms: _35  and  _36
REMARK   15  A    between atoms: _39  and  _41
REMARK   16  A    between atoms: _41  and  _42
REMARK   17  A    between atoms: _45  and  _47
REMARK   18  A    between atoms: _47  and  _48
REMARK   19  A    between atoms: _47  and  _50
REMARK   20  A    between atoms: _50  and  _51
REMARK   21  A    between atoms: _51  and  _52
REMARK   22  A    between atoms: _55  and  _57
REMARK   23  A    between atoms: _57  and  _58
REMARK   24  A    between atoms: _57  and  _60
REMARK   25  A    between atoms: _60  and  _61
REMARK   26  A    between atoms: _66  and  _68
REMARK   27  A    between atoms: _68  and  _69
REMARK   28  A    between atoms: _68  and  _71
REMARK   29  A    between atoms: _71  and  _72
REMARK   30  A    between atoms: _72  and  _73
REMARK   31  A    between atoms: _73  and  _74
REMARK   32  A    between atoms: _74  and  _75
REMARK   33  A    between atoms: _79  and  _81
REMARK   34  A    between atoms: _81  and  _82
REMARK   35  A    between atoms: _81  and  _84
REMARK   36  A    between atoms: _84  and  _85
REMARK   37  A    between atoms: _85  and  _86
REMARK   38  A    between atoms: _86  and  _87
REMARK   39  A    between atoms: _96  and  _98
REMARK   40  A    between atoms: _98  and  _99
REMARK   41  A    between atoms: _98  and  _101
REMARK   42  A    between atoms: _101  and  _102
REMARK   43  A    between atoms: _107  and  _109
REMARK   44  A    between atoms: _109  and  _110
REMARK   45  A    between atoms: _109  and  _112
REMARK   46  A    between atoms: _112  and  _113
REMARK   47  A    between atoms: _116  and  _118
REMARK   48  A    between atoms: _118  and  _119
REMARK   49  A    between atoms: _118  and  _121
REMARK   50  A    between atoms: _121  and  _122
REMARK   51  A    between atoms: _132  and  _134
REMARK   52  A    between atoms: _134  and  _135
REMARK   53  A    between atoms: _134  and  _137
REMARK   54  A    between atoms: _137  and  _138
REMARK   55  A    between atoms: _140  and  _142
REMARK   56  A    between atoms: _142  and  _143
REMARK   57  A    between atoms: _142  and  _145
REMARK   58  A    between atoms: _145  and  _146
REMARK   59  A    between atoms: _146  and  _147
REMARK   60  A    between atoms: _152  and  _154
REMARK   61  A    between atoms: _154  and  _155
REMARK   62  A    between atoms: _154  and  _157
REMARK   63  A    between atoms: _157  and  _158
REMARK   64  A    between atoms: _161  and  _163
REMARK   65  A    between atoms: _163  and  _164
REMARK   66  A    between atoms: _163  and  _166
REMARK   67  A    between atoms: _166  and  _167
REMARK   68  A    between atoms: _172  and  _174
REMARK   69  A    between atoms: _174  and  _175
REMARK   70  A    between atoms: _174  and  _177
REMARK   71  A    between atoms: _177  and  _178
REMARK   72  A    between atoms: _178  and  _179
REMARK   73  A    between atoms: _182  and  _184
REMARK   74  A    between atoms: _184  and  _185
REMARK   75  A    between atoms: _184  and  _187
REMARK   76  A    between atoms: _187  and  _188
REMARK   77  A    between atoms: _193  and  _195
REMARK   78  A    between atoms: _195  and  _196
REMARK   79  A    between atoms: _195  and  _198
REMARK   80  A    between atoms: _198  and  _199
REMARK   81  A    between atoms: _202  and  _204
REMARK   82  A    between atoms: _204  and  _205
REMARK   83  A    between atoms: _204  and  _207
REMARK   84  A    between atoms: _207  and  _208
REMARK   85  A    between atoms: _213  and  _214
REMARK   86  A    between atoms: _216  and  _218
REMARK   87  A    between atoms: _218  and  _219
REMARK   88  A    between atoms: _218  and  _221
REMARK   89  A    between atoms: _221  and  _222
REMARK   90  A    between atoms: _222  and  _223
REMARK   91  A    between atoms: _228  and  _230
REMARK   92  A    between atoms: _230  and  _231
REMARK   93  A    between atoms: _230  and  _233
REMARK   94  A    between atoms: _233  and  _234
REMARK   95  A    between atoms: _239  and  _241
REMARK   96  A    between atoms: _241  and  _242
REMARK   97  A    between atoms: _241  and  _244
REMARK   98  A    between atoms: _244  and  _245
REMARK   99  A    between atoms: _248  and  _250
REMARK  100  A    between atoms: _250  and  _251
REMARK  101  A    between atoms: _250  and  _253
REMARK  102  A    between atoms: _253  and  _254
REMARK  103  A    between atoms: _254  and  _255
REMARK  104  A    between atoms: _258  and  _260
REMARK  105  A    between atoms: _260  and  _261
REMARK  106  A    between atoms: _260  and  _263
REMARK  107  A    between atoms: _263  and  _264
REMARK  108  A    between atoms: _267  and  _269
REMARK  109  A    between atoms: _269  and  _270
REMARK  110  A    between atoms: _269  and  _272
REMARK  111  A    between atoms: _272  and  _273
REMARK  112  A    between atoms: _283  and  _285
REMARK  113  A    between atoms: _285  and  _286
REMARK  114  A    between atoms: _288  and  _290
REMARK  115  A    between atoms: _290  and  _291
REMARK  116  A    between atoms: _290  and  _293
REMARK  117  A    between atoms: _293  and  _294
REMARK  118  A    between atoms: _297  and  _299
REMARK  119  A    between atoms: _299  and  _300
REMARK  120  A    between atoms: _299  and  _302
REMARK  121  A    between atoms: _302  and  _303
REMARK  122  A    between atoms: _305  and  _307
REMARK  123  A    between atoms: _307  and  _308
REMARK  124  A    between atoms: _307  and  _310
REMARK  125  A    between atoms: _310  and  _311
REMARK  126  A    between atoms: _321  and  _323
REMARK  127  A    between atoms: _323  and  _324
REMARK  128  A    between atoms: _323  and  _326
REMARK  129  A    between atoms: _326  and  _327
REMARK  130  A    between atoms: _327  and  _328
REMARK  131  A    between atoms: _328  and  _329
REMARK                            x       y       z     vdW  Elec       q    Type
REMARK                         _______ _______ _______ _____ _____    ______ ____
ROOT
ATOM      1  O   HOH     1       3.437  16.824  13.748  0.00  0.00    +0.000 OA
ENDROOT
TORSDOF 0
REMARK  Name = ../refined-set-2016/1v0k/1v0k_pocket.pdb
REMARK  131 active torsions:
REMARK  status: ('A' for Active; 'I' for Inactive)
REMARK    1  A    between atoms: _1  and  _3
REMARK    2  A    between atoms: _3  and  _4
REMARK    3  A    between atoms: _7  and  _9
REMARK    4  A    between atoms: _9  and  _10
REMARK    5  A    between atoms: _13  and  _15
REMARK    6  A    between atoms: _15  and  _16
REMARK    7  A    between atoms: _15  and  _18
REMARK    8  A    between atoms: _18  and  _19
REMARK    9  A    between atoms: _19  and  _20
REMARK   10  A    between atoms: _20  and  _21
REMARK   11  A    between atoms: _30  and  _32
REMARK   12  A    between atoms: _32  and  _33
REMARK   13  A    between atoms: _32  and  _35
REMARK   14  A    between atoms: _35  and  _36
REMARK   15  A    between atoms: _39  and  _41
REMARK   16  A    between atoms: _41  and  _42
REMARK   17  A    between atoms: _45  and  _47
REMARK   18  A    between atoms: _47  and  _48
REMARK   19  A    between atoms: _47  and  _50
REMARK   20  A    between atoms: _50  and  _51
REMARK   21  A    between atoms: _51  and  _52
REMARK   22  A    between atoms: _55  and  _57
REMARK   23  A    between atoms: _57  and  _58
REMARK   24  A    between atoms: _57  and  _60
REMARK   25  A    between atoms: _60  and  _61
REMARK   26  A    between atoms: _66  and  _68
REMARK   27  A    between atoms: _68  and  _69
REMARK   28  A    between atoms: _68  and  _71
REMARK   29  A    between atoms: _71  and  _72
REMARK   30  A    between atoms: _72  and  _73
REMARK   31  A    between atoms: _73  and  _74
REMARK   32  A    between atoms: _74  and  _75
REMARK   33  A    between atoms: _79  and  _81
REMARK   34  A    between atoms: _81  and  _82
REMARK   35  A    between atoms: _81  and  _84
REMARK   36  A    between atoms: _84  and  _85
REMARK   37  A    between atoms: _85  and  _86
REMARK   38  A    between atoms: _86  and  _87
REMARK   39  A    between atoms: _96  and  _98
REMARK   40  A    between atoms: _98  and  _99
REMARK   41  A    between atoms: _98  and  _101
REMARK   42  A    between atoms: _101  and  _102
REMARK   43  A    between atoms: _107  and  _109
REMARK   44  A    between atoms: _109  and  _110
REMARK   45  A    between atoms: _109  and  _112
REMARK   46  A    between atoms: _112  and  _113
REMARK   47  A    between atoms: _116  and  _118
REMARK   48  A    between atoms: _118  and  _119
REMARK   49  A    between atoms: _118  and  _121
REMARK   50  A    between atoms: _121  and  _122
REMARK   51  A    between atoms: _132  and  _134
REMARK   52  A    between atoms: _134  and  _135
REMARK   53  A    between atoms: _134  and  _137
REMARK   54  A    between atoms: _137  and  _138
REMARK   55  A    between atoms: _140  and  _142
REMARK   56  A    between atoms: _142  and  _143
REMARK   57  A    between atoms: _142  and  _145
REMARK   58  A    between atoms: _145  and  _146
REMARK   59  A    between atoms: _146  and  _147
REMARK   60  A    between atoms: _152  and  _154
REMARK   61  A    between atoms: _154  and  _155
REMARK   62  A    between atoms: _154  and  _157
REMARK   63  A    between atoms: _157  and  _158
REMARK   64  A    between atoms: _161  and  _163
REMARK   65  A    between atoms: _163  and  _164
REMARK   66  A    between atoms: _163  and  _166
REMARK   67  A    between atoms: _166  and  _167
REMARK   68  A    between atoms: _172  and  _174
REMARK   69  A    between atoms: _174  and  _175
REMARK   70  A    between atoms: _174  and  _177
REMARK   71  A    between atoms: _177  and  _178
REMARK   72  A    between atoms: _178  and  _179
REMARK   73  A    between atoms: _182  and  _184
REMARK   74  A    between atoms: _184  and  _185
REMARK   75  A    between atoms: _184  and  _187
REMARK   76  A    between atoms: _187  and  _188
REMARK   77  A    between atoms: _193  and  _195
REMARK   78  A    between atoms: _195  and  _196
REMARK   79  A    between atoms: _195  and  _198
REMARK   80  A    between atoms: _198  and  _199
REMARK   81  A    between atoms: _202  and  _204
REMARK   82  A    between atoms: _204  and  _205
REMARK   83  A    between atoms: _204  and  _207
REMARK   84  A    between atoms: _207  and  _208
REMARK   85  A    between atoms: _213  and  _214
REMARK   86  A    between atoms: _216  and  _218
REMARK   87  A    between atoms: _218  and  _219
REMARK   88  A    between atoms: _218  and  _221
REMARK   89  A    between atoms: _221  and  _222
REMARK   90  A    between atoms: _222  and  _223
REMARK   91  A    between atoms: _228  and  _230
REMARK   92  A    between atoms: _230  and  _231
REMARK   93  A    between atoms: _230  and  _233
REMARK   94  A    between atoms: _233  and  _234
REMARK   95  A    between atoms: _239  and  _241
REMARK   96  A    between atoms: _241  and  _242
REMARK   97  A    between atoms: _241  and  _244
REMARK   98  A    between atoms: _244  and  _245
REMARK   99  A    between atoms: _248  and  _250
REMARK  100  A    between atoms: _250  and  _251
REMARK  101  A    between atoms: _250  and  _253
REMARK  102  A    between atoms: _253  and  _254
REMARK  103  A    between atoms: _254  and  _255
REMARK  104  A    between atoms: _258  and  _260
REMARK  105  A    between atoms: _260  and  _261
REMARK  106  A    between atoms: _260  and  _263
REMARK  107  A    between atoms: _263  and  _264
REMARK  108  A    between atoms: _267  and  _269
REMARK  109  A    between atoms: _269  and  _270
REMARK  110  A    between atoms: _269  and  _272
REMARK  111  A    between atoms: _272  and  _273
REMARK  112  A    between atoms: _283  and  _285
REMARK  113  A    between atoms: _285  and  _286
REMARK  114  A    between atoms: _288  and  _290
REMARK  115  A    between atoms: _290  and  _291
REMARK  116  A    between atoms: _290  and  _293
REMARK  117  A    between atoms: _293  and  _294
REMARK  118  A    between atoms: _297  and  _299
REMARK  119  A    between atoms: _299  and  _300
REMARK  120  A    between atoms: _299  and  _302
REMARK  121  A    between atoms: _302  and  _303
REMARK  122  A    between atoms: _305  and  _307
REMARK  123  A    between atoms: _307  and  _308
REMARK  124  A    between atoms: _307  and  _310
REMARK  125  A    between atoms: _310  and  _311
REMARK  126  A    between atoms: _321  and  _323
REMARK  127  A    between atoms: _323  and  _324
REMARK  128  A    between atoms: _323  and  _326
REMARK  129  A    between atoms: _326  and  _327
REMARK  130  A    between atoms: _327  and  _328
REMARK  131  A    between atoms: _328  and  _329
REMARK                            x       y       z     vdW  Elec       q    Type
REMARK                         _______ _______ _______ _____ _____    ______ ____
ROOT
ATOM      1  O   HOH     1       2.694  12.181  23.891  0.00  0.00    +0.000 OA
ENDROOT
TORSDOF 0
REMARK  Name = ../refined-set-2016/1v0k/1v0k_pocket.pdb
REMARK  131 active torsions:
REMARK  status: ('A' for Active; 'I' for Inactive)
REMARK    1  A    between atoms: _1  and  _3
REMARK    2  A    between atoms: _3  and  _4
REMARK    3  A    between atoms: _7  and  _9
REMARK    4  A    between atoms: _9  and  _10
REMARK    5  A    between atoms: _13  and  _15
REMARK    6  A    between atoms: _15  and  _16
REMARK    7  A    between atoms: _15  and  _18
REMARK    8  A    between atoms: _18  and  _19
REMARK    9  A    between atoms: _19  and  _20
REMARK   10  A    between atoms: _20  and  _21
REMARK   11  A    between atoms: _30  and  _32
REMARK   12  A    between atoms: _32  and  _33
REMARK   13  A    between atoms: _32  and  _35
REMARK   14  A    between atoms: _35  and  _36
REMARK   15  A    between atoms: _39  and  _41
REMARK   16  A    between atoms: _41  and  _42
REMARK   17  A    between atoms: _45  and  _47
REMARK   18  A    between atoms: _47  and  _48
REMARK   19  A    between atoms: _47  and  _50
REMARK   20  A    between atoms: _50  and  _51
REMARK   21  A    between atoms: _51  and  _52
REMARK   22  A    between atoms: _55  and  _57
REMARK   23  A    between atoms: _57  and  _58
REMARK   24  A    between atoms: _57  and  _60
REMARK   25  A    between atoms: _60  and  _61
REMARK   26  A    between atoms: _66  and  _68
REMARK   27  A    between atoms: _68  and  _69
REMARK   28  A    between atoms: _68  and  _71
REMARK   29  A    between atoms: _71  and  _72
REMARK   30  A    between atoms: _72  and  _73
REMARK   31  A    between atoms: _73  and  _74
REMARK   32  A    between atoms: _74  and  _75
REMARK   33  A    between atoms: _79  and  _81
REMARK   34  A    between atoms: _81  and  _82
REMARK   35  A    between atoms: _81  and  _84
REMARK   36  A    between atoms: _84  and  _85
REMARK   37  A    between atoms: _85  and  _86
REMARK   38  A    between atoms: _86  and  _87
REMARK   39  A    between atoms: _96  and  _98
REMARK   40  A    between atoms: _98  and  _99
REMARK   41  A    between atoms: _98  and  _101
REMARK   42  A    between atoms: _101  and  _102
REMARK   43  A    between atoms: _107  and  _109
REMARK   44  A    between atoms: _109  and  _110
REMARK   45  A    between atoms: _109  and  _112
REMARK   46  A    between atoms: _112  and  _113
REMARK   47  A    between atoms: _116  and  _118
REMARK   48  A    between atoms: _118  and  _119
REMARK   49  A    between atoms: _118  and  _121
REMARK   50  A    between atoms: _121  and  _122
REMARK   51  A    between atoms: _132  and  _134
REMARK   52  A    between atoms: _134  and  _135
REMARK   53  A    between atoms: _134  and  _137
REMARK   54  A    between atoms: _137  and  _138
REMARK   55  A    between atoms: _140  and  _142
REMARK   56  A    between atoms: _142  and  _143
REMARK   57  A    between atoms: _142  and  _145
REMARK   58  A    between atoms: _145  and  _146
REMARK   59  A    between atoms: _146  and  _147
REMARK   60  A    between atoms: _152  and  _154
REMARK   61  A    between atoms: _154  and  _155
REMARK   62  A    between atoms: _154  and  _157
REMARK   63  A    between atoms: _157  and  _158
REMARK   64  A    between atoms: _161  and  _163
REMARK   65  A    between atoms: _163  and  _164
REMARK   66  A    between atoms: _163  and  _166
REMARK   67  A    between atoms: _166  and  _167
REMARK   68  A    between atoms: _172  and  _174
REMARK   69  A    between atoms: _174  and  _175
REMARK   70  A    between atoms: _174  and  _177
REMARK   71  A    between atoms: _177  and  _178
REMARK   72  A    between atoms: _178  and  _179
REMARK   73  A    between atoms: _182  and  _184
REMARK   74  A    between atoms: _184  and  _185
REMARK   75  A    between atoms: _184  and  _187
REMARK   76  A    between atoms: _187  and  _188
REMARK   77  A    between atoms: _193  and  _195
REMARK   78  A    between atoms: _195  and  _196
REMARK   79  A    between atoms: _195  and  _198
REMARK   80  A    between atoms: _198  and  _199
REMARK   81  A    between atoms: _202  and  _204
REMARK   82  A    between atoms: _204  and  _205
REMARK   83  A    between atoms: _204  and  _207
REMARK   84  A    between atoms: _207  and  _208
REMARK   85  A    between atoms: _213  and  _214
REMARK   86  A    between atoms: _216  and  _218
REMARK   87  A    between atoms: _218  and  _219
REMARK   88  A    between atoms: _218  and  _221
REMARK   89  A    between atoms: _221  and  _222
REMARK   90  A    between atoms: _222  and  _223
REMARK   91  A    between atoms: _228  and  _230
REMARK   92  A    between atoms: _230  and  _231
REMARK   93  A    between atoms: _230  and  _233
REMARK   94  A    between atoms: _233  and  _234
REMARK   95  A    between atoms: _239  and  _241
REMARK   96  A    between atoms: _241  and  _242
REMARK   97  A    between atoms: _241  and  _244
REMARK   98  A    between atoms: _244  and  _245
REMARK   99  A    between atoms: _248  and  _250
REMARK  100  A    between atoms: _250  and  _251
REMARK  101  A    between atoms: _250  and  _253
REMARK  102  A    between atoms: _253  and  _254
REMARK  103  A    between atoms: _254  and  _255
REMARK  104  A    between atoms: _258  and  _260
REMARK  105  A    between atoms: _260  and  _261
REMARK  106  A    between atoms: _260  and  _263
REMARK  107  A    between atoms: _263  and  _264
REMARK  108  A    between atoms: _267  and  _269
REMARK  109  A    between atoms: _269  and  _270
REMARK  110  A    between atoms: _269  and  _272
REMARK  111  A    between atoms: _272  and  _273
REMARK  112  A    between atoms: _283  and  _285
REMARK  113  A    between atoms: _285  and  _286
REMARK  114  A    between atoms: _288  and  _290
REMARK  115  A    between atoms: _290  and  _291
REMARK  116  A    between atoms: _290  and  _293
REMARK  117  A    between atoms: _293  and  _294
REMARK  118  A    between atoms: _297  and  _299
REMARK  119  A    between atoms: _299  and  _300
REMARK  120  A    between atoms: _299  and  _302
REMARK  121  A    between atoms: _302  and  _303
REMARK  122  A    between atoms: _305  and  _307
REMARK  123  A    between atoms: _307  and  _308
REMARK  124  A    between atoms: _307  and  _310
REMARK  125  A    between atoms: _310  and  _311
REMARK  126  A    between atoms: _321  and  _323
REMARK  127  A    between atoms: _323  and  _324
REMARK  128  A    between atoms: _323  and  _326
REMARK  129  A    between atoms: _326  and  _327
REMARK  130  A    between atoms: _327  and  _328
REMARK  131  A    between atoms: _328  and  _329
REMARK                            x       y       z     vdW  Elec       q    Type
REMARK                         _______ _______ _______ _____ _____    ______ ____
ROOT
ATOM      1  O   HOH     1       3.740   5.522  21.642  0.00  0.00    +0.000 OA
ENDROOT
TORSDOF 0
REMARK  Name = ../refined-set-2016/1v0k/1v0k_pocket.pdb
REMARK  131 active torsions:
REMARK  status: ('A' for Active; 'I' for Inactive)
REMARK    1  A    between atoms: _1  and  _3
REMARK    2  A    between atoms: _3  and  _4
REMARK    3  A    between atoms: _7  and  _9
REMARK    4  A    between atoms: _9  and  _10
REMARK    5  A    between atoms: _13  and  _15
REMARK    6  A    between atoms: _15  and  _16
REMARK    7  A    between atoms: _15  and  _18
REMARK    8  A    between atoms: _18  and  _19
REMARK    9  A    between atoms: _19  and  _20
REMARK   10  A    between atoms: _20  and  _21
REMARK   11  A    between atoms: _30  and  _32
REMARK   12  A    between atoms: _32  and  _33
REMARK   13  A    between atoms: _32  and  _35
REMARK   14  A    between atoms: _35  and  _36
REMARK   15  A    between atoms: _39  and  _41
REMARK   16  A    between atoms: _41  and  _42
REMARK   17  A    between atoms: _45  and  _47
REMARK   18  A    between atoms: _47  and  _48
REMARK   19  A    between atoms: _47  and  _50
REMARK   20  A    between atoms: _50  and  _51
REMARK   21  A    between atoms: _51  and  _52
REMARK   22  A    between atoms: _55  and  _57
REMARK   23  A    between atoms: _57  and  _58
REMARK   24  A    between atoms: _57  and  _60
REMARK   25  A    between atoms: _60  and  _61
REMARK   26  A    between atoms: _66  and  _68
REMARK   27  A    between atoms: _68  and  _69
REMARK   28  A    between atoms: _68  and  _71
REMARK   29  A    between atoms: _71  and  _72
REMARK   30  A    between atoms: _72  and  _73
REMARK   31  A    between atoms: _73  and  _74
REMARK   32  A    between atoms: _74  and  _75
REMARK   33  A    between atoms: _79  and  _81
REMARK   34  A    between atoms: _81  and  _82
REMARK   35  A    between atoms: _81  and  _84
REMARK   36  A    between atoms: _84  and  _85
REMARK   37  A    between atoms: _85  and  _86
REMARK   38  A    between atoms: _86  and  _87
REMARK   39  A    between atoms: _96  and  _98
REMARK   40  A    between atoms: _98  and  _99
REMARK   41  A    between atoms: _98  and  _101
REMARK   42  A    between atoms: _101  and  _102
REMARK   43  A    between atoms: _107  and  _109
REMARK   44  A    between atoms: _109  and  _110
REMARK   45  A    between atoms: _109  and  _112
REMARK   46  A    between atoms: _112  and  _113
REMARK   47  A    between atoms: _116  and  _118
REMARK   48  A    between atoms: _118  and  _119
REMARK   49  A    between atoms: _118  and  _121
REMARK   50  A    between atoms: _121  and  _122
REMARK   51  A    between atoms: _132  and  _134
REMARK   52  A    between atoms: _134  and  _135
REMARK   53  A    between atoms: _134  and  _137
REMARK   54  A    between atoms: _137  and  _138
REMARK   55  A    between atoms: _140  and  _142
REMARK   56  A    between atoms: _142  and  _143
REMARK   57  A    between atoms: _142  and  _145
REMARK   58  A    between atoms: _145  and  _146
REMARK   59  A    between atoms: _146  and  _147
REMARK   60  A    between atoms: _152  and  _154
REMARK   61  A    between atoms: _154  and  _155
REMARK   62  A    between atoms: _154  and  _157
REMARK   63  A    between atoms: _157  and  _158
REMARK   64  A    between atoms: _161  and  _163
REMARK   65  A    between atoms: _163  and  _164
REMARK   66  A    between atoms: _163  and  _166
REMARK   67  A    between atoms: _166  and  _167
REMARK   68  A    between atoms: _172  and  _174
REMARK   69  A    between atoms: _174  and  _175
REMARK   70  A    between atoms: _174  and  _177
REMARK   71  A    between atoms: _177  and  _178
REMARK   72  A    between atoms: _178  and  _179
REMARK   73  A    between atoms: _182  and  _184
REMARK   74  A    between atoms: _184  and  _185
REMARK   75  A    between atoms: _184  and  _187
REMARK   76  A    between atoms: _187  and  _188
REMARK   77  A    between atoms: _193  and  _195
REMARK   78  A    between atoms: _195  and  _196
REMARK   79  A    between atoms: _195  and  _198
REMARK   80  A    between atoms: _198  and  _199
REMARK   81  A    between atoms: _202  and  _204
REMARK   82  A    between atoms: _204  and  _205
REMARK   83  A    between atoms: _204  and  _207
REMARK   84  A    between atoms: _207  and  _208
REMARK   85  A    between atoms: _213  and  _214
REMARK   86  A    between atoms: _216  and  _218
REMARK   87  A    between atoms: _218  and  _219
REMARK   88  A    between atoms: _218  and  _221
REMARK   89  A    between atoms: _221  and  _222
REMARK   90  A    between atoms: _222  and  _223
REMARK   91  A    between atoms: _228  and  _230
REMARK   92  A    between atoms: _230  and  _231
REMARK   93  A    between atoms: _230  and  _233
REMARK   94  A    between atoms: _233  and  _234
REMARK   95  A    between atoms: _239  and  _241
REMARK   96  A    between atoms: _241  and  _242
REMARK   97  A    between atoms: _241  and  _244
REMARK   98  A    between atoms: _244  and  _245
REMARK   99  A    between atoms: _248  and  _250
REMARK  100  A    between atoms: _250  and  _251
REMARK  101  A    between atoms: _250  and  _253
REMARK  102  A    between atoms: _253  and  _254
REMARK  103  A    between atoms: _254  and  _255
REMARK  104  A    between atoms: _258  and  _260
REMARK  105  A    between atoms: _260  and  _261
REMARK  106  A    between atoms: _260  and  _263
REMARK  107  A    between atoms: _263  and  _264
REMARK  108  A    between atoms: _267  and  _269
REMARK  109  A    between atoms: _269  and  _270
REMARK  110  A    between atoms: _269  and  _272
REMARK  111  A    between atoms: _272  and  _273
REMARK  112  A    between atoms: _283  and  _285
REMARK  113  A    between atoms: _285  and  _286
REMARK  114  A    between atoms: _288  and  _290
REMARK  115  A    between atoms: _290  and  _291
REMARK  116  A    between atoms: _290  and  _293
REMARK  117  A    between atoms: _293  and  _294
REMARK  118  A    between atoms: _297  and  _299
REMARK  119  A    between atoms: _299  and  _300
REMARK  120  A    between atoms: _299  and  _302
REMARK  121  A    between atoms: _302  and  _303
REMARK  122  A    between atoms: _305  and  _307
REMARK  123  A    between atoms: _307  and  _308
REMARK  124  A    between atoms: _307  and  _310
REMARK  125  A    between atoms: _310  and  _311
REMARK  126  A    between atoms: _321  and  _323
REMARK  127  A    between atoms: _323  and  _324
REMARK  128  A    between atoms: _323  and  _326
REMARK  129  A    between atoms: _326  and  _327
REMARK  130  A    between atoms: _327  and  _328
REMARK  131  A    between atoms: _328  and  _329
REMARK                            x       y       z     vdW  Elec       q    Type
REMARK                         _______ _______ _______ _____ _____    ______ ____
ROOT
ATOM      1  O   HOH     1      17.093  12.702  18.388  0.00  0.00    +0.000 OA
ENDROOT
TORSDOF 0
REMARK  Name = ../refined-set-2016/1v0k/1v0k_pocket.pdb
REMARK  131 active torsions:
REMARK  status: ('A' for Active; 'I' for Inactive)
REMARK    1  A    between atoms: _1  and  _3
REMARK    2  A    between atoms: _3  and  _4
REMARK    3  A    between atoms: _7  and  _9
REMARK    4  A    between atoms: _9  and  _10
REMARK    5  A    between atoms: _13  and  _15
REMARK    6  A    between atoms: _15  and  _16
REMARK    7  A    between atoms: _15  and  _18
REMARK    8  A    between atoms: _18  and  _19
REMARK    9  A    between atoms: _19  and  _20
REMARK   10  A    between atoms: _20  and  _21
REMARK   11  A    between atoms: _30  and  _32
REMARK   12  A    between atoms: _32  and  _33
REMARK   13  A    between atoms: _32  and  _35
REMARK   14  A    between atoms: _35  and  _36
REMARK   15  A    between atoms: _39  and  _41
REMARK   16  A    between atoms: _41  and  _42
REMARK   17  A    between atoms: _45  and  _47
REMARK   18  A    between atoms: _47  and  _48
REMARK   19  A    between atoms: _47  and  _50
REMARK   20  A    between atoms: _50  and  _51
REMARK   21  A    between atoms: _51  and  _52
REMARK   22  A    between atoms: _55  and  _57
REMARK   23  A    between atoms: _57  and  _58
REMARK   24  A    between atoms: _57  and  _60
REMARK   25  A    between atoms: _60  and  _61
REMARK   26  A    between atoms: _66  and  _68
REMARK   27  A    between atoms: _68  and  _69
REMARK   28  A    between atoms: _68  and  _71
REMARK   29  A    between atoms: _71  and  _72
REMARK   30  A    between atoms: _72  and  _73
REMARK   31  A    between atoms: _73  and  _74
REMARK   32  A    between atoms: _74  and  _75
REMARK   33  A    between atoms: _79  and  _81
REMARK   34  A    between atoms: _81  and  _82
REMARK   35  A    between atoms: _81  and  _84
REMARK   36  A    between atoms: _84  and  _85
REMARK   37  A    between atoms: _85  and  _86
REMARK   38  A    between atoms: _86  and  _87
REMARK   39  A    between atoms: _96  and  _98
REMARK   40  A    between atoms: _98  and  _99
REMARK   41  A    between atoms: _98  and  _101
REMARK   42  A    between atoms: _101  and  _102
REMARK   43  A    between atoms: _107  and  _109
REMARK   44  A    between atoms: _109  and  _110
REMARK   45  A    between atoms: _109  and  _112
REMARK   46  A    between atoms: _112  and  _113
REMARK   47  A    between atoms: _116  and  _118
REMARK   48  A    between atoms: _118  and  _119
REMARK   49  A    between atoms: _118  and  _121
REMARK   50  A    between atoms: _121  and  _122
REMARK   51  A    between atoms: _132  and  _134
REMARK   52  A    between atoms: _134  and  _135
REMARK   53  A    between atoms: _134  and  _137
REMARK   54  A    between atoms: _137  and  _138
REMARK   55  A    between atoms: _140  and  _142
REMARK   56  A    between atoms: _142  and  _143
REMARK   57  A    between atoms: _142  and  _145
REMARK   58  A    between atoms: _145  and  _146
REMARK   59  A    between atoms: _146  and  _147
REMARK   60  A    between atoms: _152  and  _154
REMARK   61  A    between atoms: _154  and  _155
REMARK   62  A    between atoms: _154  and  _157
REMARK   63  A    between atoms: _157  and  _158
REMARK   64  A    between atoms: _161  and  _163
REMARK   65  A    between atoms: _163  and  _164
REMARK   66  A    between atoms: _163  and  _166
REMARK   67  A    between atoms: _166  and  _167
REMARK   68  A    between atoms: _172  and  _174
REMARK   69  A    between atoms: _174  and  _175
REMARK   70  A    between atoms: _174  and  _177
REMARK   71  A    between atoms: _177  and  _178
REMARK   72  A    between atoms: _178  and  _179
REMARK   73  A    between atoms: _182  and  _184
REMARK   74  A    between atoms: _184  and  _185
REMARK   75  A    between atoms: _184  and  _187
REMARK   76  A    between atoms: _187  and  _188
REMARK   77  A    between atoms: _193  and  _195
REMARK   78  A    between atoms: _195  and  _196
REMARK   79  A    between atoms: _195  and  _198
REMARK   80  A    between atoms: _198  and  _199
REMARK   81  A    between atoms: _202  and  _204
REMARK   82  A    between atoms: _204  and  _205
REMARK   83  A    between atoms: _204  and  _207
REMARK   84  A    between atoms: _207  and  _208
REMARK   85  A    between atoms: _213  and  _214
REMARK   86  A    between atoms: _216  and  _218
REMARK   87  A    between atoms: _218  and  _219
REMARK   88  A    between atoms: _218  and  _221
REMARK   89  A    between atoms: _221  and  _222
REMARK   90  A    between atoms: _222  and  _223
REMARK   91  A    between atoms: _228  and  _230
REMARK   92  A    between atoms: _230  and  _231
REMARK   93  A    between atoms: _230  and  _233
REMARK   94  A    between atoms: _233  and  _234
REMARK   95  A    between atoms: _239  and  _241
REMARK   96  A    between atoms: _241  and  _242
REMARK   97  A    between atoms: _241  and  _244
REMARK   98  A    between atoms: _244  and  _245
REMARK   99  A    between atoms: _248  and  _250
REMARK  100  A    between atoms: _250  and  _251
REMARK  101  A    between atoms: _250  and  _253
REMARK  102  A    between atoms: _253  and  _254
REMARK  103  A    between atoms: _254  and  _255
REMARK  104  A    between atoms: _258  and  _260
REMARK  105  A    between atoms: _260  and  _261
REMARK  106  A    between atoms: _260  and  _263
REMARK  107  A    between atoms: _263  and  _264
REMARK  108  A    between atoms: _267  and  _269
REMARK  109  A    between atoms: _269  and  _270
REMARK  110  A    between atoms: _269  and  _272
REMARK  111  A    between atoms: _272  and  _273
REMARK  112  A    between atoms: _283  and  _285
REMARK  113  A    between atoms: _285  and  _286
REMARK  114  A    between atoms: _288  and  _290
REMARK  115  A    between atoms: _290  and  _291
REMARK  116  A    between atoms: _290  and  _293
REMARK  117  A    between atoms: _293  and  _294
REMARK  118  A    between atoms: _297  and  _299
REMARK  119  A    between atoms: _299  and  _300
REMARK  120  A    between atoms: _299  and  _302
REMARK  121  A    between atoms: _302  and  _303
REMARK  122  A    between atoms: _305  and  _307
REMARK  123  A    between atoms: _307  and  _308
REMARK  124  A    between atoms: _307  and  _310
REMARK  125  A    between atoms: _310  and  _311
REMARK  126  A    between atoms: _321  and  _323
REMARK  127  A    between atoms: _323  and  _324
REMARK  128  A    between atoms: _323  and  _326
REMARK  129  A    between atoms: _326  and  _327
REMARK  130  A    between atoms: _327  and  _328
REMARK  131  A    between atoms: _328  and  _329
REMARK                            x       y       z     vdW  Elec       q    Type
REMARK                         _______ _______ _______ _____ _____    ______ ____
ROOT
ATOM      1  O   HOH     1       5.373   8.099  14.482  0.00  0.00    +0.000 OA
ENDROOT
TORSDOF 0
REMARK  Name = ../refined-set-2016/1v0k/1v0k_pocket.pdb
REMARK  131 active torsions:
REMARK  status: ('A' for Active; 'I' for Inactive)
REMARK    1  A    between atoms: _1  and  _3
REMARK    2  A    between atoms: _3  and  _4
REMARK    3  A    between atoms: _7  and  _9
REMARK    4  A    between atoms: _9  and  _10
REMARK    5  A    between atoms: _13  and  _15
REMARK    6  A    between atoms: _15  and  _16
REMARK    7  A    between atoms: _15  and  _18
REMARK    8  A    between atoms: _18  and  _19
REMARK    9  A    between atoms: _19  and  _20
REMARK   10  A    between atoms: _20  and  _21
REMARK   11  A    between atoms: _30  and  _32
REMARK   12  A    between atoms: _32  and  _33
REMARK   13  A    between atoms: _32  and  _35
REMARK   14  A    between atoms: _35  and  _36
REMARK   15  A    between atoms: _39  and  _41
REMARK   16  A    between atoms: _41  and  _42
REMARK   17  A    between atoms: _45  and  _47
REMARK   18  A    between atoms: _47  and  _48
REMARK   19  A    between atoms: _47  and  _50
REMARK   20  A    between atoms: _50  and  _51
REMARK   21  A    between atoms: _51  and  _52
REMARK   22  A    between atoms: _55  and  _57
REMARK   23  A    between atoms: _57  and  _58
REMARK   24  A    between atoms: _57  and  _60
REMARK   25  A    between atoms: _60  and  _61
REMARK   26  A    between atoms: _66  and  _68
REMARK   27  A    between atoms: _68  and  _69
REMARK   28  A    between atoms: _68  and  _71
REMARK   29  A    between atoms: _71  and  _72
REMARK   30  A    between atoms: _72  and  _73
REMARK   31  A    between atoms: _73  and  _74
REMARK   32  A    between atoms: _74  and  _75
REMARK   33  A    between atoms: _79  and  _81
REMARK   34  A    between atoms: _81  and  _82
REMARK   35  A    between atoms: _81  and  _84
REMARK   36  A    between atoms: _84  and  _85
REMARK   37  A    between atoms: _85  and  _86
REMARK   38  A    between atoms: _86  and  _87
REMARK   39  A    between atoms: _96  and  _98
REMARK   40  A    between atoms: _98  and  _99
REMARK   41  A    between atoms: _98  and  _101
REMARK   42  A    between atoms: _101  and  _102
REMARK   43  A    between atoms: _107  and  _109
REMARK   44  A    between atoms: _109  and  _110
REMARK   45  A    between atoms: _109  and  _112
REMARK   46  A    between atoms: _112  and  _113
REMARK   47  A    between atoms: _116  and  _118
REMARK   48  A    between atoms: _118  and  _119
REMARK   49  A    between atoms: _118  and  _121
REMARK   50  A    between atoms: _121  and  _122
REMARK   51  A    between atoms: _132  and  _134
REMARK   52  A    between atoms: _134  and  _135
REMARK   53  A    between atoms: _134  and  _137
REMARK   54  A    between atoms: _137  and  _138
REMARK   55  A    between atoms: _140  and  _142
REMARK   56  A    between atoms: _142  and  _143
REMARK   57  A    between atoms: _142  and  _145
REMARK   58  A    between atoms: _145  and  _146
REMARK   59  A    between atoms: _146  and  _147
REMARK   60  A    between atoms: _152  and  _154
REMARK   61  A    between atoms: _154  and  _155
REMARK   62  A    between atoms: _154  and  _157
REMARK   63  A    between atoms: _157  and  _158
REMARK   64  A    between atoms: _161  and  _163
REMARK   65  A    between atoms: _163  and  _164
REMARK   66  A    between atoms: _163  and  _166
REMARK   67  A    between atoms: _166  and  _167
REMARK   68  A    between atoms: _172  and  _174
REMARK   69  A    between atoms: _174  and  _175
REMARK   70  A    between atoms: _174  and  _177
REMARK   71  A    between atoms: _177  and  _178
REMARK   72  A    between atoms: _178  and  _179
REMARK   73  A    between atoms: _182  and  _184
REMARK   74  A    between atoms: _184  and  _185
REMARK   75  A    between atoms: _184  and  _187
REMARK   76  A    between atoms: _187  and  _188
REMARK   77  A    between atoms: _193  and  _195
REMARK   78  A    between atoms: _195  and  _196
REMARK   79  A    between atoms: _195  and  _198
REMARK   80  A    between atoms: _198  and  _199
REMARK   81  A    between atoms: _202  and  _204
REMARK   82  A    between atoms: _204  and  _205
REMARK   83  A    between atoms: _204  and  _207
REMARK   84  A    between atoms: _207  and  _208
REMARK   85  A    between atoms: _213  and  _214
REMARK   86  A    between atoms: _216  and  _218
REMARK   87  A    between atoms: _218  and  _219
REMARK   88  A    between atoms: _218  and  _221
REMARK   89  A    between atoms: _221  and  _222
REMARK   90  A    between atoms: _222  and  _223
REMARK   91  A    between atoms: _228  and  _230
REMARK   92  A    between atoms: _230  and  _231
REMARK   93  A    between atoms: _230  and  _233
REMARK   94  A    between atoms: _233  and  _234
REMARK   95  A    between atoms: _239  and  _241
REMARK   96  A    between atoms: _241  and  _242
REMARK   97  A    between atoms: _241  and  _244
REMARK   98  A    between atoms: _244  and  _245
REMARK   99  A    between atoms: _248  and  _250
REMARK  100  A    between atoms: _250  and  _251
REMARK  101  A    between atoms: _250  and  _253
REMARK  102  A    between atoms: _253  and  _254
REMARK  103  A    between atoms: _254  and  _255
REMARK  104  A    between atoms: _258  and  _260
REMARK  105  A    between atoms: _260  and  _261
REMARK  106  A    between atoms: _260  and  _263
REMARK  107  A    between atoms: _263  and  _264
REMARK  108  A    between atoms: _267  and  _269
REMARK  109  A    between atoms: _269  and  _270
REMARK  110  A    between atoms: _269  and  _272
REMARK  111  A    between atoms: _272  and  _273
REMARK  112  A    between atoms: _283  and  _285
REMARK  113  A    between atoms: _285  and  _286
REMARK  114  A    between atoms: _288  and  _290
REMARK  115  A    between atoms: _290  and  _291
REMARK  116  A    between atoms: _290  and  _293
REMARK  117  A    between atoms: _293  and  _294
REMARK  118  A    between atoms: _297  and  _299
REMARK  119  A    between atoms: _299  and  _300
REMARK  120  A    between atoms: _299  and  _302
REMARK  121  A    between atoms: _302  and  _303
REMARK  122  A    between atoms: _305  and  _307
REMARK  123  A    between atoms: _307  and  _308
REMARK  124  A    between atoms: _307  and  _310
REMARK  125  A    between atoms: _310  and  _311
REMARK  126  A    between atoms: _321  and  _323
REMARK  127  A    between atoms: _323  and  _324
REMARK  128  A    between atoms: _323  and  _326
REMARK  129  A    between atoms: _326  and  _327
REMARK  130  A    between atoms: _327  and  _328
REMARK  131  A    between atoms: _328  and  _329
REMARK                            x       y       z     vdW  Elec       q    Type
REMARK                         _______ _______ _______ _____ _____    ______ ____
ROOT
ATOM      1  O   HOH     1       7.895   5.772  15.730  0.00  0.00    +0.000 OA
ENDROOT
TORSDOF 0
REMARK  Name = ../refined-set-2016/1v0k/1v0k_pocket.pdb
REMARK  131 active torsions:
REMARK  status: ('A' for Active; 'I' for Inactive)
REMARK    1  A    between atoms: _1  and  _3
REMARK    2  A    between atoms: _3  and  _4
REMARK    3  A    between atoms: _7  and  _9
REMARK    4  A    between atoms: _9  and  _10
REMARK    5  A    between atoms: _13  and  _15
REMARK    6  A    between atoms: _15  and  _16
REMARK    7  A    between atoms: _15  and  _18
REMARK    8  A    between atoms: _18  and  _19
REMARK    9  A    between atoms: _19  and  _20
REMARK   10  A    between atoms: _20  and  _21
REMARK   11  A    between atoms: _30  and  _32
REMARK   12  A    between atoms: _32  and  _33
REMARK   13  A    between atoms: _32  and  _35
REMARK   14  A    between atoms: _35  and  _36
REMARK   15  A    between atoms: _39  and  _41
REMARK   16  A    between atoms: _41  and  _42
REMARK   17  A    between atoms: _45  and  _47
REMARK   18  A    between atoms: _47  and  _48
REMARK   19  A    between atoms: _47  and  _50
REMARK   20  A    between atoms: _50  and  _51
REMARK   21  A    between atoms: _51  and  _52
REMARK   22  A    between atoms: _55  and  _57
REMARK   23  A    between atoms: _57  and  _58
REMARK   24  A    between atoms: _57  and  _60
REMARK   25  A    between atoms: _60  and  _61
REMARK   26  A    between atoms: _66  and  _68
REMARK   27  A    between atoms: _68  and  _69
REMARK   28  A    between atoms: _68  and  _71
REMARK   29  A    between atoms: _71  and  _72
REMARK   30  A    between atoms: _72  and  _73
REMARK   31  A    between atoms: _73  and  _74
REMARK   32  A    between atoms: _74  and  _75
REMARK   33  A    between atoms: _79  and  _81
REMARK   34  A    between atoms: _81  and  _82
REMARK   35  A    between atoms: _81  and  _84
REMARK   36  A    between atoms: _84  and  _85
REMARK   37  A    between atoms: _85  and  _86
REMARK   38  A    between atoms: _86  and  _87
REMARK   39  A    between atoms: _96  and  _98
REMARK   40  A    between atoms: _98  and  _99
REMARK   41  A    between atoms: _98  and  _101
REMARK   42  A    between atoms: _101  and  _102
REMARK   43  A    between atoms: _107  and  _109
REMARK   44  A    between atoms: _109  and  _110
REMARK   45  A    between atoms: _109  and  _112
REMARK   46  A    between atoms: _112  and  _113
REMARK   47  A    between atoms: _116  and  _118
REMARK   48  A    between atoms: _118  and  _119
REMARK   49  A    between atoms: _118  and  _121
REMARK   50  A    between atoms: _121  and  _122
REMARK   51  A    between atoms: _132  and  _134
REMARK   52  A    between atoms: _134  and  _135
REMARK   53  A    between atoms: _134  and  _137
REMARK   54  A    between atoms: _137  and  _138
REMARK   55  A    between atoms: _140  and  _142
REMARK   56  A    between atoms: _142  and  _143
REMARK   57  A    between atoms: _142  and  _145
REMARK   58  A    between atoms: _145  and  _146
REMARK   59  A    between atoms: _146  and  _147
REMARK   60  A    between atoms: _152  and  _154
REMARK   61  A    between atoms: _154  and  _155
REMARK   62  A    between atoms: _154  and  _157
REMARK   63  A    between atoms: _157  and  _158
REMARK   64  A    between atoms: _161  and  _163
REMARK   65  A    between atoms: _163  and  _164
REMARK   66  A    between atoms: _163  and  _166
REMARK   67  A    between atoms: _166  and  _167
REMARK   68  A    between atoms: _172  and  _174
REMARK   69  A    between atoms: _174  and  _175
REMARK   70  A    between atoms: _174  and  _177
REMARK   71  A    between atoms: _177  and  _178
REMARK   72  A    between atoms: _178  and  _179
REMARK   73  A    between atoms: _182  and  _184
REMARK   74  A    between atoms: _184  and  _185
REMARK   75  A    between atoms: _184  and  _187
REMARK   76  A    between atoms: _187  and  _188
REMARK   77  A    between atoms: _193  and  _195
REMARK   78  A    between atoms: _195  and  _196
REMARK   79  A    between atoms: _195  and  _198
REMARK   80  A    between atoms: _198  and  _199
REMARK   81  A    between atoms: _202  and  _204
REMARK   82  A    between atoms: _204  and  _205
REMARK   83  A    between atoms: _204  and  _207
REMARK   84  A    between atoms: _207  and  _208
REMARK   85  A    between atoms: _213  and  _214
REMARK   86  A    between atoms: _216  and  _218
REMARK   87  A    between atoms: _218  and  _219
REMARK   88  A    between atoms: _218  and  _221
REMARK   89  A    between atoms: _221  and  _222
REMARK   90  A    between atoms: _222  and  _223
REMARK   91  A    between atoms: _228  and  _230
REMARK   92  A    between atoms: _230  and  _231
REMARK   93  A    between atoms: _230  and  _233
REMARK   94  A    between atoms: _233  and  _234
REMARK   95  A    between atoms: _239  and  _241
REMARK   96  A    between atoms: _241  and  _242
REMARK   97  A    between atoms: _241  and  _244
REMARK   98  A    between atoms: _244  and  _245
REMARK   99  A    between atoms: _248  and  _250
REMARK  100  A    between atoms: _250  and  _251
REMARK  101  A    between atoms: _250  and  _253
REMARK  102  A    between atoms: _253  and  _254
REMARK  103  A    between atoms: _254  and  _255
REMARK  104  A    between atoms: _258  and  _260
REMARK  105  A    between atoms: _260  and  _261
REMARK  106  A    between atoms: _260  and  _263
REMARK  107  A    between atoms: _263  and  _264
REMARK  108  A    between atoms: _267  and  _269
REMARK  109  A    between atoms: _269  and  _270
REMARK  110  A    between atoms: _269  and  _272
REMARK  111  A    between atoms: _272  and  _273
REMARK  112  A    between atoms: _283  and  _285
REMARK  113  A    between atoms: _285  and  _286
REMARK  114  A    between atoms: _288  and  _290
REMARK  115  A    between atoms: _290  and  _291
REMARK  116  A    between atoms: _290  and  _293
REMARK  117  A    between atoms: _293  and  _294
REMARK  118  A    between atoms: _297  and  _299
REMARK  119  A    between atoms: _299  and  _300
REMARK  120  A    between atoms: _299  and  _302
REMARK  121  A    between atoms: _302  and  _303
REMARK  122  A    between atoms: _305  and  _307
REMARK  123  A    between atoms: _307  and  _308
REMARK  124  A    between atoms: _307  and  _310
REMARK  125  A    between atoms: _310  and  _311
REMARK  126  A    between atoms: _321  and  _323
REMARK  127  A    between atoms: _323  and  _324
REMARK  128  A    between atoms: _323  and  _326
REMARK  129  A    between atoms: _326  and  _327
REMARK  130  A    between atoms: _327  and  _328
REMARK  131  A    between atoms: _328  and  _329
REMARK                            x       y       z     vdW  Elec       q    Type
REMARK                         _______ _______ _______ _____ _____    ______ ____
ROOT
ATOM      1  O   HOH     1       4.764   6.868  17.534  0.00  0.00    +0.000 OA
ENDROOT
TORSDOF 0
REMARK  Name = ../refined-set-2016/1v0k/1v0k_pocket.pdb
REMARK  131 active torsions:
REMARK  status: ('A' for Active; 'I' for Inactive)
REMARK    1  A    between atoms: _1  and  _3
REMARK    2  A    between atoms: _3  and  _4
REMARK    3  A    between atoms: _7  and  _9
REMARK    4  A    between atoms: _9  and  _10
REMARK    5  A    between atoms: _13  and  _15
REMARK    6  A    between atoms: _15  and  _16
REMARK    7  A    between atoms: _15  and  _18
REMARK    8  A    between atoms: _18  and  _19
REMARK    9  A    between atoms: _19  and  _20
REMARK   10  A    between atoms: _20  and  _21
REMARK   11  A    between atoms: _30  and  _32
REMARK   12  A    between atoms: _32  and  _33
REMARK   13  A    between atoms: _32  and  _35
REMARK   14  A    between atoms: _35  and  _36
REMARK   15  A    between atoms: _39  and  _41
REMARK   16  A    between atoms: _41  and  _42
REMARK   17  A    between atoms: _45  and  _47
REMARK   18  A    between atoms: _47  and  _48
REMARK   19  A    between atoms: _47  and  _50
REMARK   20  A    between atoms: _50  and  _51
REMARK   21  A    between atoms: _51  and  _52
REMARK   22  A    between atoms: _55  and  _57
REMARK   23  A    between atoms: _57  and  _58
REMARK   24  A    between atoms: _57  and  _60
REMARK   25  A    between atoms: _60  and  _61
REMARK   26  A    between atoms: _66  and  _68
REMARK   27  A    between atoms: _68  and  _69
REMARK   28  A    between atoms: _68  and  _71
REMARK   29  A    between atoms: _71  and  _72
REMARK   30  A    between atoms: _72  and  _73
REMARK   31  A    between atoms: _73  and  _74
REMARK   32  A    between atoms: _74  and  _75
REMARK   33  A    between atoms: _79  and  _81
REMARK   34  A    between atoms: _81  and  _82
REMARK   35  A    between atoms: _81  and  _84
REMARK   36  A    between atoms: _84  and  _85
REMARK   37  A    between atoms: _85  and  _86
REMARK   38  A    between atoms: _86  and  _87
REMARK   39  A    between atoms: _96  and  _98
REMARK   40  A    between atoms: _98  and  _99
REMARK   41  A    between atoms: _98  and  _101
REMARK   42  A    between atoms: _101  and  _102
REMARK   43  A    between atoms: _107  and  _109
REMARK   44  A    between atoms: _109  and  _110
REMARK   45  A    between atoms: _109  and  _112
REMARK   46  A    between atoms: _112  and  _113
REMARK   47  A    between atoms: _116  and  _118
REMARK   48  A    between atoms: _118  and  _119
REMARK   49  A    between atoms: _118  and  _121
REMARK   50  A    between atoms: _121  and  _122
REMARK   51  A    between atoms: _132  and  _134
REMARK   52  A    between atoms: _134  and  _135
REMARK   53  A    between atoms: _134  and  _137
REMARK   54  A    between atoms: _137  and  _138
REMARK   55  A    between atoms: _140  and  _142
REMARK   56  A    between atoms: _142  and  _143
REMARK   57  A    between atoms: _142  and  _145
REMARK   58  A    between atoms: _145  and  _146
REMARK   59  A    between atoms: _146  and  _147
REMARK   60  A    between atoms: _152  and  _154
REMARK   61  A    between atoms: _154  and  _155
REMARK   62  A    between atoms: _154  and  _157
REMARK   63  A    between atoms: _157  and  _158
REMARK   64  A    between atoms: _161  and  _163
REMARK   65  A    between atoms: _163  and  _164
REMARK   66  A    between atoms: _163  and  _166
REMARK   67  A    between atoms: _166  and  _167
REMARK   68  A    between atoms: _172  and  _174
REMARK   69  A    between atoms: _174  and  _175
REMARK   70  A    between atoms: _174  and  _177
REMARK   71  A    between atoms: _177  and  _178
REMARK   72  A    between atoms: _178  and  _179
REMARK   73  A    between atoms: _182  and  _184
REMARK   74  A    between atoms: _184  and  _185
REMARK   75  A    between atoms: _184  and  _187
REMARK   76  A    between atoms: _187  and  _188
REMARK   77  A    between atoms: _193  and  _195
REMARK   78  A    between atoms: _195  and  _196
REMARK   79  A    between atoms: _195  and  _198
REMARK   80  A    between atoms: _198  and  _199
REMARK   81  A    between atoms: _202  and  _204
REMARK   82  A    between atoms: _204  and  _205
REMARK   83  A    between atoms: _204  and  _207
REMARK   84  A    between atoms: _207  and  _208
REMARK   85  A    between atoms: _213  and  _214
REMARK   86  A    between atoms: _216  and  _218
REMARK   87  A    between atoms: _218  and  _219
REMARK   88  A    between atoms: _218  and  _221
REMARK   89  A    between atoms: _221  and  _222
REMARK   90  A    between atoms: _222  and  _223
REMARK   91  A    between atoms: _228  and  _230
REMARK   92  A    between atoms: _230  and  _231
REMARK   93  A    between atoms: _230  and  _233
REMARK   94  A    between atoms: _233  and  _234
REMARK   95  A    between atoms: _239  and  _241
REMARK   96  A    between atoms: _241  and  _242
REMARK   97  A    between atoms: _241  and  _244
REMARK   98  A    between atoms: _244  and  _245
REMARK   99  A    between atoms: _248  and  _250
REMARK  100  A    between atoms: _250  and  _251
REMARK  101  A    between atoms: _250  and  _253
REMARK  102  A    between atoms: _253  and  _254
REMARK  103  A    between atoms: _254  and  _255
REMARK  104  A    between atoms: _258  and  _260
REMARK  105  A    between atoms: _260  and  _261
REMARK  106  A    between atoms: _260  and  _263
REMARK  107  A    between atoms: _263  and  _264
REMARK  108  A    between atoms: _267  and  _269
REMARK  109  A    between atoms: _269  and  _270
REMARK  110  A    between atoms: _269  and  _272
REMARK  111  A    between atoms: _272  and  _273
REMARK  112  A    between atoms: _283  and  _285
REMARK  113  A    between atoms: _285  and  _286
REMARK  114  A    between atoms: _288  and  _290
REMARK  115  A    between atoms: _290  and  _291
REMARK  116  A    between atoms: _290  and  _293
REMARK  117  A    between atoms: _293  and  _294
REMARK  118  A    between atoms: _297  and  _299
REMARK  119  A    between atoms: _299  and  _300
REMARK  120  A    between atoms: _299  and  _302
REMARK  121  A    between atoms: _302  and  _303
REMARK  122  A    between atoms: _305  and  _307
REMARK  123  A    between atoms: _307  and  _308
REMARK  124  A    between atoms: _307  and  _310
REMARK  125  A    between atoms: _310  and  _311
REMARK  126  A    between atoms: _321  and  _323
REMARK  127  A    between atoms: _323  and  _324
REMARK  128  A    between atoms: _323  and  _326
REMARK  129  A    between atoms: _326  and  _327
REMARK  130  A    between atoms: _327  and  _328
REMARK  131  A    between atoms: _328  and  _329
REMARK                            x       y       z     vdW  Elec       q    Type
REMARK                         _______ _______ _______ _____ _____    ______ ____
ROOT
ATOM      1  O   UNL     1       5.666   8.062  21.233  0.00  0.00    +0.000 OA
ATOM      2  O   UNL     1       4.825   7.883  21.934  0.00  0.00    +0.000 OA
ENDROOT
TORSDOF 0
REMARK  Name = ../refined-set-2016/1v0k/1v0k_pocket.pdb
REMARK  131 active torsions:
REMARK  status: ('A' for Active; 'I' for Inactive)
REMARK    1  A    between atoms: _1  and  _3
REMARK    2  A    between atoms: _3  and  _4
REMARK    3  A    between atoms: _7  and  _9
REMARK    4  A    between atoms: _9  and  _10
REMARK    5  A    between atoms: _13  and  _15
REMARK    6  A    between atoms: _15  and  _16
REMARK    7  A    between atoms: _15  and  _18
REMARK    8  A    between atoms: _18  and  _19
REMARK    9  A    between atoms: _19  and  _20
REMARK   10  A    between atoms: _20  and  _21
REMARK   11  A    between atoms: _30  and  _32
REMARK   12  A    between atoms: _32  and  _33
REMARK   13  A    between atoms: _32  and  _35
REMARK   14  A    between atoms: _35  and  _36
REMARK   15  A    between atoms: _39  and  _41
REMARK   16  A    between atoms: _41  and  _42
REMARK   17  A    between atoms: _45  and  _47
REMARK   18  A    between atoms: _47  and  _48
REMARK   19  A    between atoms: _47  and  _50
REMARK   20  A    between atoms: _50  and  _51
REMARK   21  A    between atoms: _51  and  _52
REMARK   22  A    between atoms: _55  and  _57
REMARK   23  A    between atoms: _57  and  _58
REMARK   24  A    between atoms: _57  and  _60
REMARK   25  A    between atoms: _60  and  _61
REMARK   26  A    between atoms: _66  and  _68
REMARK   27  A    between atoms: _68  and  _69
REMARK   28  A    between atoms: _68  and  _71
REMARK   29  A    between atoms: _71  and  _72
REMARK   30  A    between atoms: _72  and  _73
REMARK   31  A    between atoms: _73  and  _74
REMARK   32  A    between atoms: _74  and  _75
REMARK   33  A    between atoms: _79  and  _81
REMARK   34  A    between atoms: _81  and  _82
REMARK   35  A    between atoms: _81  and  _84
REMARK   36  A    between atoms: _84  and  _85
REMARK   37  A    between atoms: _85  and  _86
REMARK   38  A    between atoms: _86  and  _87
REMARK   39  A    between atoms: _96  and  _98
REMARK   40  A    between atoms: _98  and  _99
REMARK   41  A    between atoms: _98  and  _101
REMARK   42  A    between atoms: _101  and  _102
REMARK   43  A    between atoms: _107  and  _109
REMARK   44  A    between atoms: _109  and  _110
REMARK   45  A    between atoms: _109  and  _112
REMARK   46  A    between atoms: _112  and  _113
REMARK   47  A    between atoms: _116  and  _118
REMARK   48  A    between atoms: _118  and  _119
REMARK   49  A    between atoms: _118  and  _121
REMARK   50  A    between atoms: _121  and  _122
REMARK   51  A    between atoms: _132  and  _134
REMARK   52  A    between atoms: _134  and  _135
REMARK   53  A    between atoms: _134  and  _137
REMARK   54  A    between atoms: _137  and  _138
REMARK   55  A    between atoms: _140  and  _142
REMARK   56  A    between atoms: _142  and  _143
REMARK   57  A    between atoms: _142  and  _145
REMARK   58  A    between atoms: _145  and  _146
REMARK   59  A    between atoms: _146  and  _147
REMARK   60  A    between atoms: _152  and  _154
REMARK   61  A    between atoms: _154  and  _155
REMARK   62  A    between atoms: _154  and  _157
REMARK   63  A    between atoms: _157  and  _158
REMARK   64  A    between atoms: _161  and  _163
REMARK   65  A    between atoms: _163  and  _164
REMARK   66  A    between atoms: _163  and  _166
REMARK   67  A    between atoms: _166  and  _167
REMARK   68  A    between atoms: _172  and  _174
REMARK   69  A    between atoms: _174  and  _175
REMARK   70  A    between atoms: _174  and  _177
REMARK   71  A    between atoms: _177  and  _178
REMARK   72  A    between atoms: _178  and  _179
REMARK   73  A    between atoms: _182  and  _184
REMARK   74  A    between atoms: _184  and  _185
REMARK   75  A    between atoms: _184  and  _187
REMARK   76  A    between atoms: _187  and  _188
REMARK   77  A    between atoms: _193  and  _195
REMARK   78  A    between atoms: _195  and  _196
REMARK   79  A    between atoms: _195  and  _198
REMARK   80  A    between atoms: _198  and  _199
REMARK   81  A    between atoms: _202  and  _204
REMARK   82  A    between atoms: _204  and  _205
REMARK   83  A    between atoms: _204  and  _207
REMARK   84  A    between atoms: _207  and  _208
REMARK   85  A    between atoms: _213  and  _214
REMARK   86  A    between atoms: _216  and  _218
REMARK   87  A    between atoms: _218  and  _219
REMARK   88  A    between atoms: _218  and  _221
REMARK   89  A    between atoms: _221  and  _222
REMARK   90  A    between atoms: _222  and  _223
REMARK   91  A    between atoms: _228  and  _230
REMARK   92  A    between atoms: _230  and  _231
REMARK   93  A    between atoms: _230  and  _233
REMARK   94  A    between atoms: _233  and  _234
REMARK   95  A    between atoms: _239  and  _241
REMARK   96  A    between atoms: _241  and  _242
REMARK   97  A    between atoms: _241  and  _244
REMARK   98  A    between atoms: _244  and  _245
REMARK   99  A    between atoms: _248  and  _250
REMARK  100  A    between atoms: _250  and  _251
REMARK  101  A    between atoms: _250  and  _253
REMARK  102  A    between atoms: _253  and  _254
REMARK  103  A    between atoms: _254  and  _255
REMARK  104  A    between atoms: _258  and  _260
REMARK  105  A    between atoms: _260  and  _261
REMARK  106  A    between atoms: _260  and  _263
REMARK  107  A    between atoms: _263  and  _264
REMARK  108  A    between atoms: _267  and  _269
REMARK  109  A    between atoms: _269  and  _270
REMARK  110  A    between atoms: _269  and  _272
REMARK  111  A    between atoms: _272  and  _273
REMARK  112  A    between atoms: _283  and  _285
REMARK  113  A    between atoms: _285  and  _286
REMARK  114  A    between atoms: _288  and  _290
REMARK  115  A    between atoms: _290  and  _291
REMARK  116  A    between atoms: _290  and  _293
REMARK  117  A    between atoms: _293  and  _294
REMARK  118  A    between atoms: _297  and  _299
REMARK  119  A    between atoms: _299  and  _300
REMARK  120  A    between atoms: _299  and  _302
REMARK  121  A    between atoms: _302  and  _303
REMARK  122  A    between atoms: _305  and  _307
REMARK  123  A    between atoms: _307  and  _308
REMARK  124  A    between atoms: _307  and  _310
REMARK  125  A    between atoms: _310  and  _311
REMARK  126  A    between atoms: _321  and  _323
REMARK  127  A    between atoms: _323  and  _324
REMARK  128  A    between atoms: _323  and  _326
REMARK  129  A    between atoms: _326  and  _327
REMARK  130  A    between atoms: _327  and  _328
REMARK  131  A    between atoms: _328  and  _329
REMARK                            x       y       z     vdW  Elec       q    Type
REMARK                         _______ _______ _______ _____ _____    ______ ____
ROOT
ATOM      1  O   HOH     1       3.044   9.481  22.646  0.00  0.00    +0.000 OA
ENDROOT
TORSDOF 0
REMARK  Name = ../refined-set-2016/1v0k/1v0k_pocket.pdb
REMARK  131 active torsions:
REMARK  status: ('A' for Active; 'I' for Inactive)
REMARK    1  A    between atoms: _1  and  _3
REMARK    2  A    between atoms: _3  and  _4
REMARK    3  A    between atoms: _7  and  _9
REMARK    4  A    between atoms: _9  and  _10
REMARK    5  A    between atoms: _13  and  _15
REMARK    6  A    between atoms: _15  and  _16
REMARK    7  A    between atoms: _15  and  _18
REMARK    8  A    between atoms: _18  and  _19
REMARK    9  A    between atoms: _19  and  _20
REMARK   10  A    between atoms: _20  and  _21
REMARK   11  A    between atoms: _30  and  _32
REMARK   12  A    between atoms: _32  and  _33
REMARK   13  A    between atoms: _32  and  _35
REMARK   14  A    between atoms: _35  and  _36
REMARK   15  A    between atoms: _39  and  _41
REMARK   16  A    between atoms: _41  and  _42
REMARK   17  A    between atoms: _45  and  _47
REMARK   18  A    between atoms: _47  and  _48
REMARK   19  A    between atoms: _47  and  _50
REMARK   20  A    between atoms: _50  and  _51
REMARK   21  A    between atoms: _51  and  _52
REMARK   22  A    between atoms: _55  and  _57
REMARK   23  A    between atoms: _57  and  _58
REMARK   24  A    between atoms: _57  and  _60
REMARK   25  A    between atoms: _60  and  _61
REMARK   26  A    between atoms: _66  and  _68
REMARK   27  A    between atoms: _68  and  _69
REMARK   28  A    between atoms: _68  and  _71
REMARK   29  A    between atoms: _71  and  _72
REMARK   30  A    between atoms: _72  and  _73
REMARK   31  A    between atoms: _73  and  _74
REMARK   32  A    between atoms: _74  and  _75
REMARK   33  A    between atoms: _79  and  _81
REMARK   34  A    between atoms: _81  and  _82
REMARK   35  A    between atoms: _81  and  _84
REMARK   36  A    between atoms: _84  and  _85
REMARK   37  A    between atoms: _85  and  _86
REMARK   38  A    between atoms: _86  and  _87
REMARK   39  A    between atoms: _96  and  _98
REMARK   40  A    between atoms: _98  and  _99
REMARK   41  A    between atoms: _98  and  _101
REMARK   42  A    between atoms: _101  and  _102
REMARK   43  A    between atoms: _107  and  _109
REMARK   44  A    between atoms: _109  and  _110
REMARK   45  A    between atoms: _109  and  _112
REMARK   46  A    between atoms: _112  and  _113
REMARK   47  A    between atoms: _116  and  _118
REMARK   48  A    between atoms: _118  and  _119
REMARK   49  A    between atoms: _118  and  _121
REMARK   50  A    between atoms: _121  and  _122
REMARK   51  A    between atoms: _132  and  _134
REMARK   52  A    between atoms: _134  and  _135
REMARK   53  A    between atoms: _134  and  _137
REMARK   54  A    between atoms: _137  and  _138
REMARK   55  A    between atoms: _140  and  _142
REMARK   56  A    between atoms: _142  and  _143
REMARK   57  A    between atoms: _142  and  _145
REMARK   58  A    between atoms: _145  and  _146
REMARK   59  A    between atoms: _146  and  _147
REMARK   60  A    between atoms: _152  and  _154
REMARK   61  A    between atoms: _154  and  _155
REMARK   62  A    between atoms: _154  and  _157
REMARK   63  A    between atoms: _157  and  _158
REMARK   64  A    between atoms: _161  and  _163
REMARK   65  A    between atoms: _163  and  _164
REMARK   66  A    between atoms: _163  and  _166
REMARK   67  A    between atoms: _166  and  _167
REMARK   68  A    between atoms: _172  and  _174
REMARK   69  A    between atoms: _174  and  _175
REMARK   70  A    between atoms: _174  and  _177
REMARK   71  A    between atoms: _177  and  _178
REMARK   72  A    between atoms: _178  and  _179
REMARK   73  A    between atoms: _182  and  _184
REMARK   74  A    between atoms: _184  and  _185
REMARK   75  A    between atoms: _184  and  _187
REMARK   76  A    between atoms: _187  and  _188
REMARK   77  A    between atoms: _193  and  _195
REMARK   78  A    between atoms: _195  and  _196
REMARK   79  A    between atoms: _195  and  _198
REMARK   80  A    between atoms: _198  and  _199
REMARK   81  A    between atoms: _202  and  _204
REMARK   82  A    between atoms: _204  and  _205
REMARK   83  A    between atoms: _204  and  _207
REMARK   84  A    between atoms: _207  and  _208
REMARK   85  A    between atoms: _213  and  _214
REMARK   86  A    between atoms: _216  and  _218
REMARK   87  A    between atoms: _218  and  _219
REMARK   88  A    between atoms: _218  and  _221
REMARK   89  A    between atoms: _221  and  _222
REMARK   90  A    between atoms: _222  and  _223
REMARK   91  A    between atoms: _228  and  _230
REMARK   92  A    between atoms: _230  and  _231
REMARK   93  A    between atoms: _230  and  _233
REMARK   94  A    between atoms: _233  and  _234
REMARK   95  A    between atoms: _239  and  _241
REMARK   96  A    between atoms: _241  and  _242
REMARK   97  A    between atoms: _241  and  _244
REMARK   98  A    between atoms: _244  and  _245
REMARK   99  A    between atoms: _248  and  _250
REMARK  100  A    between atoms: _250  and  _251
REMARK  101  A    between atoms: _250  and  _253
REMARK  102  A    between atoms: _253  and  _254
REMARK  103  A    between atoms: _254  and  _255
REMARK  104  A    between atoms: _258  and  _260
REMARK  105  A    between atoms: _260  and  _261
REMARK  106  A    between atoms: _260  and  _263
REMARK  107  A    between atoms: _263  and  _264
REMARK  108  A    between atoms: _267  and  _269
REMARK  109  A    between atoms: _269  and  _270
REMARK  110  A    between atoms: _269  and  _272
REMARK  111  A    between atoms: _272  and  _273
REMARK  112  A    between atoms: _283  and  _285
REMARK  113  A    between atoms: _285  and  _286
REMARK  114  A    between atoms: _288  and  _290
REMARK  115  A    between atoms: _290  and  _291
REMARK  116  A    between atoms: _290  and  _293
REMARK  117  A    between atoms: _293  and  _294
REMARK  118  A    between atoms: _297  and  _299
REMARK  119  A    between atoms: _299  and  _300
REMARK  120  A    between atoms: _299  and  _302
REMARK  121  A    between atoms: _302  and  _303
REMARK  122  A    between atoms: _305  and  _307
REMARK  123  A    between atoms: _307  and  _308
REMARK  124  A    between atoms: _307  and  _310
REMARK  125  A    between atoms: _310  and  _311
REMARK  126  A    between atoms: _321  and  _323
REMARK  127  A    between atoms: _323  and  _324
REMARK  128  A    between atoms: _323  and  _326
REMARK  129  A    between atoms: _326  and  _327
REMARK  130  A    between atoms: _327  and  _328
REMARK  131  A    between atoms: _328  and  _329
REMARK                            x       y       z     vdW  Elec       q    Type
REMARK                         _______ _______ _______ _____ _____    ______ ____
ROOT
ATOM      1  O   HOH     1       1.527  15.619  22.496  0.00  0.00    +0.000 OA
ENDROOT
TORSDOF 0
REMARK  Name = ../refined-set-2016/1v0k/1v0k_pocket.pdb
REMARK  131 active torsions:
REMARK  status: ('A' for Active; 'I' for Inactive)
REMARK    1  A    between atoms: _1  and  _3
REMARK    2  A    between atoms: _3  and  _4
REMARK    3  A    between atoms: _7  and  _9
REMARK    4  A    between atoms: _9  and  _10
REMARK    5  A    between atoms: _13  and  _15
REMARK    6  A    between atoms: _15  and  _16
REMARK    7  A    between atoms: _15  and  _18
REMARK    8  A    between atoms: _18  and  _19
REMARK    9  A    between atoms: _19  and  _20
REMARK   10  A    between atoms: _20  and  _21
REMARK   11  A    between atoms: _30  and  _32
REMARK   12  A    between atoms: _32  and  _33
REMARK   13  A    between atoms: _32  and  _35
REMARK   14  A    between atoms: _35  and  _36
REMARK   15  A    between atoms: _39  and  _41
REMARK   16  A    between atoms: _41  and  _42
REMARK   17  A    between atoms: _45  and  _47
REMARK   18  A    between atoms: _47  and  _48
REMARK   19  A    between atoms: _47  and  _50
REMARK   20  A    between atoms: _50  and  _51
REMARK   21  A    between atoms: _51  and  _52
REMARK   22  A    between atoms: _55  and  _57
REMARK   23  A    between atoms: _57  and  _58
REMARK   24  A    between atoms: _57  and  _60
REMARK   25  A    between atoms: _60  and  _61
REMARK   26  A    between atoms: _66  and  _68
REMARK   27  A    between atoms: _68  and  _69
REMARK   28  A    between atoms: _68  and  _71
REMARK   29  A    between atoms: _71  and  _72
REMARK   30  A    between atoms: _72  and  _73
REMARK   31  A    between atoms: _73  and  _74
REMARK   32  A    between atoms: _74  and  _75
REMARK   33  A    between atoms: _79  and  _81
REMARK   34  A    between atoms: _81  and  _82
REMARK   35  A    between atoms: _81  and  _84
REMARK   36  A    between atoms: _84  and  _85
REMARK   37  A    between atoms: _85  and  _86
REMARK   38  A    between atoms: _86  and  _87
REMARK   39  A    between atoms: _96  and  _98
REMARK   40  A    between atoms: _98  and  _99
REMARK   41  A    between atoms: _98  and  _101
REMARK   42  A    between atoms: _101  and  _102
REMARK   43  A    between atoms: _107  and  _109
REMARK   44  A    between atoms: _109  and  _110
REMARK   45  A    between atoms: _109  and  _112
REMARK   46  A    between atoms: _112  and  _113
REMARK   47  A    between atoms: _116  and  _118
REMARK   48  A    between atoms: _118  and  _119
REMARK   49  A    between atoms: _118  and  _121
REMARK   50  A    between atoms: _121  and  _122
REMARK   51  A    between atoms: _132  and  _134
REMARK   52  A    between atoms: _134  and  _135
REMARK   53  A    between atoms: _134  and  _137
REMARK   54  A    between atoms: _137  and  _138
REMARK   55  A    between atoms: _140  and  _142
REMARK   56  A    between atoms: _142  and  _143
REMARK   57  A    between atoms: _142  and  _145
REMARK   58  A    between atoms: _145  and  _146
REMARK   59  A    between atoms: _146  and  _147
REMARK   60  A    between atoms: _152  and  _154
REMARK   61  A    between atoms: _154  and  _155
REMARK   62  A    between atoms: _154  and  _157
REMARK   63  A    between atoms: _157  and  _158
REMARK   64  A    between atoms: _161  and  _163
REMARK   65  A    between atoms: _163  and  _164
REMARK   66  A    between atoms: _163  and  _166
REMARK   67  A    between atoms: _166  and  _167
REMARK   68  A    between atoms: _172  and  _174
REMARK   69  A    between atoms: _174  and  _175
REMARK   70  A    between atoms: _174  and  _177
REMARK   71  A    between atoms: _177  and  _178
REMARK   72  A    between atoms: _178  and  _179
REMARK   73  A    between atoms: _182  and  _184
REMARK   74  A    between atoms: _184  and  _185
REMARK   75  A    between atoms: _184  and  _187
REMARK   76  A    between atoms: _187  and  _188
REMARK   77  A    between atoms: _193  and  _195
REMARK   78  A    between atoms: _195  and  _196
REMARK   79  A    between atoms: _195  and  _198
REMARK   80  A    between atoms: _198  and  _199
REMARK   81  A    between atoms: _202  and  _204
REMARK   82  A    between atoms: _204  and  _205
REMARK   83  A    between atoms: _204  and  _207
REMARK   84  A    between atoms: _207  and  _208
REMARK   85  A    between atoms: _213  and  _214
REMARK   86  A    between atoms: _216  and  _218
REMARK   87  A    between atoms: _218  and  _219
REMARK   88  A    between atoms: _218  and  _221
REMARK   89  A    between atoms: _221  and  _222
REMARK   90  A    between atoms: _222  and  _223
REMARK   91  A    between atoms: _228  and  _230
REMARK   92  A    between atoms: _230  and  _231
REMARK   93  A    between atoms: _230  and  _233
REMARK   94  A    between atoms: _233  and  _234
REMARK   95  A    between atoms: _239  and  _241
REMARK   96  A    between atoms: _241  and  _242
REMARK   97  A    between atoms: _241  and  _244
REMARK   98  A    between atoms: _244  and  _245
REMARK   99  A    between atoms: _248  and  _250
REMARK  100  A    between atoms: _250  and  _251
REMARK  101  A    between atoms: _250  and  _253
REMARK  102  A    between atoms: _253  and  _254
REMARK  103  A    between atoms: _254  and  _255
REMARK  104  A    between atoms: _258  and  _260
REMARK  105  A    between atoms: _260  and  _261
REMARK  106  A    between atoms: _260  and  _263
REMARK  107  A    between atoms: _263  and  _264
REMARK  108  A    between atoms: _267  and  _269
REMARK  109  A    between atoms: _269  and  _270
REMARK  110  A    between atoms: _269  and  _272
REMARK  111  A    between atoms: _272  and  _273
REMARK  112  A    between atoms: _283  and  _285
REMARK  113  A    between atoms: _285  and  _286
REMARK  114  A    between atoms: _288  and  _290
REMARK  115  A    between atoms: _290  and  _291
REMARK  116  A    between atoms: _290  and  _293
REMARK  117  A    between atoms: _293  and  _294
REMARK  118  A    between atoms: _297  and  _299
REMARK  119  A    between atoms: _299  and  _300
REMARK  120  A    between atoms: _299  and  _302
REMARK  121  A    between atoms: _302  and  _303
REMARK  122  A    between atoms: _305  and  _307
REMARK  123  A    between atoms: _307  and  _308
REMARK  124  A    between atoms: _307  and  _310
REMARK  125  A    between atoms: _310  and  _311
REMARK  126  A    between atoms: _321  and  _323
REMARK  127  A    between atoms: _323  and  _324
REMARK  128  A    between atoms: _323  and  _326
REMARK  129  A    between atoms: _326  and  _327
REMARK  130  A    between atoms: _327  and  _328
REMARK  131  A    between atoms: _328  and  _329
REMARK                            x       y       z     vdW  Elec       q    Type
REMARK                         _______ _______ _______ _____ _____    ______ ____
ROOT
ATOM      1  O   HOH     1       4.304  14.033  24.188  0.00  0.00    +0.000 OA
ENDROOT
TORSDOF 0
REMARK  Name = ../refined-set-2016/1v0k/1v0k_pocket.pdb
REMARK  131 active torsions:
REMARK  status: ('A' for Active; 'I' for Inactive)
REMARK    1  A    between atoms: _1  and  _3
REMARK    2  A    between atoms: _3  and  _4
REMARK    3  A    between atoms: _7  and  _9
REMARK    4  A    between atoms: _9  and  _10
REMARK    5  A    between atoms: _13  and  _15
REMARK    6  A    between atoms: _15  and  _16
REMARK    7  A    between atoms: _15  and  _18
REMARK    8  A    between atoms: _18  and  _19
REMARK    9  A    between atoms: _19  and  _20
REMARK   10  A    between atoms: _20  and  _21
REMARK   11  A    between atoms: _30  and  _32
REMARK   12  A    between atoms: _32  and  _33
REMARK   13  A    between atoms: _32  and  _35
REMARK   14  A    between atoms: _35  and  _36
REMARK   15  A    between atoms: _39  and  _41
REMARK   16  A    between atoms: _41  and  _42
REMARK   17  A    between atoms: _45  and  _47
REMARK   18  A    between atoms: _47  and  _48
REMARK   19  A    between atoms: _47  and  _50
REMARK   20  A    between atoms: _50  and  _51
REMARK   21  A    between atoms: _51  and  _52
REMARK   22  A    between atoms: _55  and  _57
REMARK   23  A    between atoms: _57  and  _58
REMARK   24  A    between atoms: _57  and  _60
REMARK   25  A    between atoms: _60  and  _61
REMARK   26  A    between atoms: _66  and  _68
REMARK   27  A    between atoms: _68  and  _69
REMARK   28  A    between atoms: _68  and  _71
REMARK   29  A    between atoms: _71  and  _72
REMARK   30  A    between atoms: _72  and  _73
REMARK   31  A    between atoms: _73  and  _74
REMARK   32  A    between atoms: _74  and  _75
REMARK   33  A    between atoms: _79  and  _81
REMARK   34  A    between atoms: _81  and  _82
REMARK   35  A    between atoms: _81  and  _84
REMARK   36  A    between atoms: _84  and  _85
REMARK   37  A    between atoms: _85  and  _86
REMARK   38  A    between atoms: _86  and  _87
REMARK   39  A    between atoms: _96  and  _98
REMARK   40  A    between atoms: _98  and  _99
REMARK   41  A    between atoms: _98  and  _101
REMARK   42  A    between atoms: _101  and  _102
REMARK   43  A    between atoms: _107  and  _109
REMARK   44  A    between atoms: _109  and  _110
REMARK   45  A    between atoms: _109  and  _112
REMARK   46  A    between atoms: _112  and  _113
REMARK   47  A    between atoms: _116  and  _118
REMARK   48  A    between atoms: _118  and  _119
REMARK   49  A    between atoms: _118  and  _121
REMARK   50  A    between atoms: _121  and  _122
REMARK   51  A    between atoms: _132  and  _134
REMARK   52  A    between atoms: _134  and  _135
REMARK   53  A    between atoms: _134  and  _137
REMARK   54  A    between atoms: _137  and  _138
REMARK   55  A    between atoms: _140  and  _142
REMARK   56  A    between atoms: _142  and  _143
REMARK   57  A    between atoms: _142  and  _145
REMARK   58  A    between atoms: _145  and  _146
REMARK   59  A    between atoms: _146  and  _147
REMARK   60  A    between atoms: _152  and  _154
REMARK   61  A    between atoms: _154  and  _155
REMARK   62  A    between atoms: _154  and  _157
REMARK   63  A    between atoms: _157  and  _158
REMARK   64  A    between atoms: _161  and  _163
REMARK   65  A    between atoms: _163  and  _164
REMARK   66  A    between atoms: _163  and  _166
REMARK   67  A    between atoms: _166  and  _167
REMARK   68  A    between atoms: _172  and  _174
REMARK   69  A    between atoms: _174  and  _175
REMARK   70  A    between atoms: _174  and  _177
REMARK   71  A    between atoms: _177  and  _178
REMARK   72  A    between atoms: _178  and  _179
REMARK   73  A    between atoms: _182  and  _184
REMARK   74  A    between atoms: _184  and  _185
REMARK   75  A    between atoms: _184  and  _187
REMARK   76  A    between atoms: _187  and  _188
REMARK   77  A    between atoms: _193  and  _195
REMARK   78  A    between atoms: _195  and  _196
REMARK   79  A    between atoms: _195  and  _198
REMARK   80  A    between atoms: _198  and  _199
REMARK   81  A    between atoms: _202  and  _204
REMARK   82  A    between atoms: _204  and  _205
REMARK   83  A    between atoms: _204  and  _207
REMARK   84  A    between atoms: _207  and  _208
REMARK   85  A    between atoms: _213  and  _214
REMARK   86  A    between atoms: _216  and  _218
REMARK   87  A    between atoms: _218  and  _219
REMARK   88  A    between atoms: _218  and  _221
REMARK   89  A    between atoms: _221  and  _222
REMARK   90  A    between atoms: _222  and  _223
REMARK   91  A    between atoms: _228  and  _230
REMARK   92  A    between atoms: _230  and  _231
REMARK   93  A    between atoms: _230  and  _233
REMARK   94  A    between atoms: _233  and  _234
REMARK   95  A    between atoms: _239  and  _241
REMARK   96  A    between atoms: _241  and  _242
REMARK   97  A    between atoms: _241  and  _244
REMARK   98  A    between atoms: _244  and  _245
REMARK   99  A    between atoms: _248  and  _250
REMARK  100  A    between atoms: _250  and  _251
REMARK  101  A    between atoms: _250  and  _253
REMARK  102  A    between atoms: _253  and  _254
REMARK  103  A    between atoms: _254  and  _255
REMARK  104  A    between atoms: _258  and  _260
REMARK  105  A    between atoms: _260  and  _261
REMARK  106  A    between atoms: _260  and  _263
REMARK  107  A    between atoms: _263  and  _264
REMARK  108  A    between atoms: _267  and  _269
REMARK  109  A    between atoms: _269  and  _270
REMARK  110  A    between atoms: _269  and  _272
REMARK  111  A    between atoms: _272  and  _273
REMARK  112  A    between atoms: _283  and  _285
REMARK  113  A    between atoms: _285  and  _286
REMARK  114  A    between atoms: _288  and  _290
REMARK  115  A    between atoms: _290  and  _291
REMARK  116  A    between atoms: _290  and  _293
REMARK  117  A    between atoms: _293  and  _294
REMARK  118  A    between atoms: _297  and  _299
REMARK  119  A    between atoms: _299  and  _300
REMARK  120  A    between atoms: _299  and  _302
REMARK  121  A    between atoms: _302  and  _303
REMARK  122  A    between atoms: _305  and  _307
REMARK  123  A    between atoms: _307  and  _308
REMARK  124  A    between atoms: _307  and  _310
REMARK  125  A    between atoms: _310  and  _311
REMARK  126  A    between atoms: _321  and  _323
REMARK  127  A    between atoms: _323  and  _324
REMARK  128  A    between atoms: _323  and  _326
REMARK  129  A    between atoms: _326  and  _327
REMARK  130  A    between atoms: _327  and  _328
REMARK  131  A    between atoms: _328  and  _329
REMARK                            x       y       z     vdW  Elec       q    Type
REMARK                         _______ _______ _______ _____ _____    ______ ____
ROOT
ATOM      1  O   HOH     1      10.167  12.701  23.763  0.00  0.00    +0.000 OA
ENDROOT
TORSDOF 0
REMARK  Name = ../refined-set-2016/1v0k/1v0k_pocket.pdb
REMARK  131 active torsions:
REMARK  status: ('A' for Active; 'I' for Inactive)
REMARK    1  A    between atoms: _1  and  _3
REMARK    2  A    between atoms: _3  and  _4
REMARK    3  A    between atoms: _7  and  _9
REMARK    4  A    between atoms: _9  and  _10
REMARK    5  A    between atoms: _13  and  _15
REMARK    6  A    between atoms: _15  and  _16
REMARK    7  A    between atoms: _15  and  _18
REMARK    8  A    between atoms: _18  and  _19
REMARK    9  A    between atoms: _19  and  _20
REMARK   10  A    between atoms: _20  and  _21
REMARK   11  A    between atoms: _30  and  _32
REMARK   12  A    between atoms: _32  and  _33
REMARK   13  A    between atoms: _32  and  _35
REMARK   14  A    between atoms: _35  and  _36
REMARK   15  A    between atoms: _39  and  _41
REMARK   16  A    between atoms: _41  and  _42
REMARK   17  A    between atoms: _45  and  _47
REMARK   18  A    between atoms: _47  and  _48
REMARK   19  A    between atoms: _47  and  _50
REMARK   20  A    between atoms: _50  and  _51
REMARK   21  A    between atoms: _51  and  _52
REMARK   22  A    between atoms: _55  and  _57
REMARK   23  A    between atoms: _57  and  _58
REMARK   24  A    between atoms: _57  and  _60
REMARK   25  A    between atoms: _60  and  _61
REMARK   26  A    between atoms: _66  and  _68
REMARK   27  A    between atoms: _68  and  _69
REMARK   28  A    between atoms: _68  and  _71
REMARK   29  A    between atoms: _71  and  _72
REMARK   30  A    between atoms: _72  and  _73
REMARK   31  A    between atoms: _73  and  _74
REMARK   32  A    between atoms: _74  and  _75
REMARK   33  A    between atoms: _79  and  _81
REMARK   34  A    between atoms: _81  and  _82
REMARK   35  A    between atoms: _81  and  _84
REMARK   36  A    between atoms: _84  and  _85
REMARK   37  A    between atoms: _85  and  _86
REMARK   38  A    between atoms: _86  and  _87
REMARK   39  A    between atoms: _96  and  _98
REMARK   40  A    between atoms: _98  and  _99
REMARK   41  A    between atoms: _98  and  _101
REMARK   42  A    between atoms: _101  and  _102
REMARK   43  A    between atoms: _107  and  _109
REMARK   44  A    between atoms: _109  and  _110
REMARK   45  A    between atoms: _109  and  _112
REMARK   46  A    between atoms: _112  and  _113
REMARK   47  A    between atoms: _116  and  _118
REMARK   48  A    between atoms: _118  and  _119
REMARK   49  A    between atoms: _118  and  _121
REMARK   50  A    between atoms: _121  and  _122
REMARK   51  A    between atoms: _132  and  _134
REMARK   52  A    between atoms: _134  and  _135
REMARK   53  A    between atoms: _134  and  _137
REMARK   54  A    between atoms: _137  and  _138
REMARK   55  A    between atoms: _140  and  _142
REMARK   56  A    between atoms: _142  and  _143
REMARK   57  A    between atoms: _142  and  _145
REMARK   58  A    between atoms: _145  and  _146
REMARK   59  A    between atoms: _146  and  _147
REMARK   60  A    between atoms: _152  and  _154
REMARK   61  A    between atoms: _154  and  _155
REMARK   62  A    between atoms: _154  and  _157
REMARK   63  A    between atoms: _157  and  _158
REMARK   64  A    between atoms: _161  and  _163
REMARK   65  A    between atoms: _163  and  _164
REMARK   66  A    between atoms: _163  and  _166
REMARK   67  A    between atoms: _166  and  _167
REMARK   68  A    between atoms: _172  and  _174
REMARK   69  A    between atoms: _174  and  _175
REMARK   70  A    between atoms: _174  and  _177
REMARK   71  A    between atoms: _177  and  _178
REMARK   72  A    between atoms: _178  and  _179
REMARK   73  A    between atoms: _182  and  _184
REMARK   74  A    between atoms: _184  and  _185
REMARK   75  A    between atoms: _184  and  _187
REMARK   76  A    between atoms: _187  and  _188
REMARK   77  A    between atoms: _193  and  _195
REMARK   78  A    between atoms: _195  and  _196
REMARK   79  A    between atoms: _195  and  _198
REMARK   80  A    between atoms: _198  and  _199
REMARK   81  A    between atoms: _202  and  _204
REMARK   82  A    between atoms: _204  and  _205
REMARK   83  A    between atoms: _204  and  _207
REMARK   84  A    between atoms: _207  and  _208
REMARK   85  A    between atoms: _213  and  _214
REMARK   86  A    between atoms: _216  and  _218
REMARK   87  A    between atoms: _218  and  _219
REMARK   88  A    between atoms: _218  and  _221
REMARK   89  A    between atoms: _221  and  _222
REMARK   90  A    between atoms: _222  and  _223
REMARK   91  A    between atoms: _228  and  _230
REMARK   92  A    between atoms: _230  and  _231
REMARK   93  A    between atoms: _230  and  _233
REMARK   94  A    between atoms: _233  and  _234
REMARK   95  A    between atoms: _239  and  _241
REMARK   96  A    between atoms: _241  and  _242
REMARK   97  A    between atoms: _241  and  _244
REMARK   98  A    between atoms: _244  and  _245
REMARK   99  A    between atoms: _248  and  _250
REMARK  100  A    between atoms: _250  and  _251
REMARK  101  A    between atoms: _250  and  _253
REMARK  102  A    between atoms: _253  and  _254
REMARK  103  A    between atoms: _254  and  _255
REMARK  104  A    between atoms: _258  and  _260
REMARK  105  A    between atoms: _260  and  _261
REMARK  106  A    between atoms: _260  and  _263
REMARK  107  A    between atoms: _263  and  _264
REMARK  108  A    between atoms: _267  and  _269
REMARK  109  A    between atoms: _269  and  _270
REMARK  110  A    between atoms: _269  and  _272
REMARK  111  A    between atoms: _272  and  _273
REMARK  112  A    between atoms: _283  and  _285
REMARK  113  A    between atoms: _285  and  _286
REMARK  114  A    between atoms: _288  and  _290
REMARK  115  A    between atoms: _290  and  _291
REMARK  116  A    between atoms: _290  and  _293
REMARK  117  A    between atoms: _293  and  _294
REMARK  118  A    between atoms: _297  and  _299
REMARK  119  A    between atoms: _299  and  _300
REMARK  120  A    between atoms: _299  and  _302
REMARK  121  A    between atoms: _302  and  _303
REMARK  122  A    between atoms: _305  and  _307
REMARK  123  A    between atoms: _307  and  _308
REMARK  124  A    between atoms: _307  and  _310
REMARK  125  A    between atoms: _310  and  _311
REMARK  126  A    between atoms: _321  and  _323
REMARK  127  A    between atoms: _323  and  _324
REMARK  128  A    between atoms: _323  and  _326
REMARK  129  A    between atoms: _326  and  _327
REMARK  130  A    between atoms: _327  and  _328
REMARK  131  A    between atoms: _328  and  _329
REMARK                            x       y       z     vdW  Elec       q    Type
REMARK                         _______ _______ _______ _____ _____    ______ ____
ROOT
ATOM      1  O   HOH     1       5.284  23.815  15.082  0.00  0.00    +0.000 OA
ENDROOT
TORSDOF 0
REMARK  Name = ../refined-set-2016/1v0k/1v0k_pocket.pdb
REMARK  131 active torsions:
REMARK  status: ('A' for Active; 'I' for Inactive)
REMARK    1  A    between atoms: _1  and  _3
REMARK    2  A    between atoms: _3  and  _4
REMARK    3  A    between atoms: _7  and  _9
REMARK    4  A    between atoms: _9  and  _10
REMARK    5  A    between atoms: _13  and  _15
REMARK    6  A    between atoms: _15  and  _16
REMARK    7  A    between atoms: _15  and  _18
REMARK    8  A    between atoms: _18  and  _19
REMARK    9  A    between atoms: _19  and  _20
REMARK   10  A    between atoms: _20  and  _21
REMARK   11  A    between atoms: _30  and  _32
REMARK   12  A    between atoms: _32  and  _33
REMARK   13  A    between atoms: _32  and  _35
REMARK   14  A    between atoms: _35  and  _36
REMARK   15  A    between atoms: _39  and  _41
REMARK   16  A    between atoms: _41  and  _42
REMARK   17  A    between atoms: _45  and  _47
REMARK   18  A    between atoms: _47  and  _48
REMARK   19  A    between atoms: _47  and  _50
REMARK   20  A    between atoms: _50  and  _51
REMARK   21  A    between atoms: _51  and  _52
REMARK   22  A    between atoms: _55  and  _57
REMARK   23  A    between atoms: _57  and  _58
REMARK   24  A    between atoms: _57  and  _60
REMARK   25  A    between atoms: _60  and  _61
REMARK   26  A    between atoms: _66  and  _68
REMARK   27  A    between atoms: _68  and  _69
REMARK   28  A    between atoms: _68  and  _71
REMARK   29  A    between atoms: _71  and  _72
REMARK   30  A    between atoms: _72  and  _73
REMARK   31  A    between atoms: _73  and  _74
REMARK   32  A    between atoms: _74  and  _75
REMARK   33  A    between atoms: _79  and  _81
REMARK   34  A    between atoms: _81  and  _82
REMARK   35  A    between atoms: _81  and  _84
REMARK   36  A    between atoms: _84  and  _85
REMARK   37  A    between atoms: _85  and  _86
REMARK   38  A    between atoms: _86  and  _87
REMARK   39  A    between atoms: _96  and  _98
REMARK   40  A    between atoms: _98  and  _99
REMARK   41  A    between atoms: _98  and  _101
REMARK   42  A    between atoms: _101  and  _102
REMARK   43  A    between atoms: _107  and  _109
REMARK   44  A    between atoms: _109  and  _110
REMARK   45  A    between atoms: _109  and  _112
REMARK   46  A    between atoms: _112  and  _113
REMARK   47  A    between atoms: _116  and  _118
REMARK   48  A    between atoms: _118  and  _119
REMARK   49  A    between atoms: _118  and  _121
REMARK   50  A    between atoms: _121  and  _122
REMARK   51  A    between atoms: _132  and  _134
REMARK   52  A    between atoms: _134  and  _135
REMARK   53  A    between atoms: _134  and  _137
REMARK   54  A    between atoms: _137  and  _138
REMARK   55  A    between atoms: _140  and  _142
REMARK   56  A    between atoms: _142  and  _143
REMARK   57  A    between atoms: _142  and  _145
REMARK   58  A    between atoms: _145  and  _146
REMARK   59  A    between atoms: _146  and  _147
REMARK   60  A    between atoms: _152  and  _154
REMARK   61  A    between atoms: _154  and  _155
REMARK   62  A    between atoms: _154  and  _157
REMARK   63  A    between atoms: _157  and  _158
REMARK   64  A    between atoms: _161  and  _163
REMARK   65  A    between atoms: _163  and  _164
REMARK   66  A    between atoms: _163  and  _166
REMARK   67  A    between atoms: _166  and  _167
REMARK   68  A    between atoms: _172  and  _174
REMARK   69  A    between atoms: _174  and  _175
REMARK   70  A    between atoms: _174  and  _177
REMARK   71  A    between atoms: _177  and  _178
REMARK   72  A    between atoms: _178  and  _179
REMARK   73  A    between atoms: _182  and  _184
REMARK   74  A    between atoms: _184  and  _185
REMARK   75  A    between atoms: _184  and  _187
REMARK   76  A    between atoms: _187  and  _188
REMARK   77  A    between atoms: _193  and  _195
REMARK   78  A    between atoms: _195  and  _196
REMARK   79  A    between atoms: _195  and  _198
REMARK   80  A    between atoms: _198  and  _199
REMARK   81  A    between atoms: _202  and  _204
REMARK   82  A    between atoms: _204  and  _205
REMARK   83  A    between atoms: _204  and  _207
REMARK   84  A    between atoms: _207  and  _208
REMARK   85  A    between atoms: _213  and  _214
REMARK   86  A    between atoms: _216  and  _218
REMARK   87  A    between atoms: _218  and  _219
REMARK   88  A    between atoms: _218  and  _221
REMARK   89  A    between atoms: _221  and  _222
REMARK   90  A    between atoms: _222  and  _223
REMARK   91  A    between atoms: _228  and  _230
REMARK   92  A    between atoms: _230  and  _231
REMARK   93  A    between atoms: _230  and  _233
REMARK   94  A    between atoms: _233  and  _234
REMARK   95  A    between atoms: _239  and  _241
REMARK   96  A    between atoms: _241  and  _242
REMARK   97  A    between atoms: _241  and  _244
REMARK   98  A    between atoms: _244  and  _245
REMARK   99  A    between atoms: _248  and  _250
REMARK  100  A    between atoms: _250  and  _251
REMARK  101  A    between atoms: _250  and  _253
REMARK  102  A    between atoms: _253  and  _254
REMARK  103  A    between atoms: _254  and  _255
REMARK  104  A    between atoms: _258  and  _260
REMARK  105  A    between atoms: _260  and  _261
REMARK  106  A    between atoms: _260  and  _263
REMARK  107  A    between atoms: _263  and  _264
REMARK  108  A    between atoms: _267  and  _269
REMARK  109  A    between atoms: _269  and  _270
REMARK  110  A    between atoms: _269  and  _272
REMARK  111  A    between atoms: _272  and  _273
REMARK  112  A    between atoms: _283  and  _285
REMARK  113  A    between atoms: _285  and  _286
REMARK  114  A    between atoms: _288  and  _290
REMARK  115  A    between atoms: _290  and  _291
REMARK  116  A    between atoms: _290  and  _293
REMARK  117  A    between atoms: _293  and  _294
REMARK  118  A    between atoms: _297  and  _299
REMARK  119  A    between atoms: _299  and  _300
REMARK  120  A    between atoms: _299  and  _302
REMARK  121  A    between atoms: _302  and  _303
REMARK  122  A    between atoms: _305  and  _307
REMARK  123  A    between atoms: _307  and  _308
REMARK  124  A    between atoms: _307  and  _310
REMARK  125  A    between atoms: _310  and  _311
REMARK  126  A    between atoms: _321  and  _323
REMARK  127  A    between atoms: _323  and  _324
REMARK  128  A    between atoms: _323  and  _326
REMARK  129  A    between atoms: _326  and  _327
REMARK  130  A    between atoms: _327  and  _328
REMARK  131  A    between atoms: _328  and  _329
REMARK                            x       y       z     vdW  Elec       q    Type
REMARK                         _______ _______ _______ _____ _____    ______ ____
ROOT
ATOM      1  O   HOH     1       3.287  22.534  16.777  0.00  0.00    +0.000 OA
ENDROOT
TORSDOF 0
REMARK  Name = ../refined-set-2016/1v0k/1v0k_pocket.pdb
REMARK  131 active torsions:
REMARK  status: ('A' for Active; 'I' for Inactive)
REMARK    1  A    between atoms: _1  and  _3
REMARK    2  A    between atoms: _3  and  _4
REMARK    3  A    between atoms: _7  and  _9
REMARK    4  A    between atoms: _9  and  _10
REMARK    5  A    between atoms: _13  and  _15
REMARK    6  A    between atoms: _15  and  _16
REMARK    7  A    between atoms: _15  and  _18
REMARK    8  A    between atoms: _18  and  _19
REMARK    9  A    between atoms: _19  and  _20
REMARK   10  A    between atoms: _20  and  _21
REMARK   11  A    between atoms: _30  and  _32
REMARK   12  A    between atoms: _32  and  _33
REMARK   13  A    between atoms: _32  and  _35
REMARK   14  A    between atoms: _35  and  _36
REMARK   15  A    between atoms: _39  and  _41
REMARK   16  A    between atoms: _41  and  _42
REMARK   17  A    between atoms: _45  and  _47
REMARK   18  A    between atoms: _47  and  _48
REMARK   19  A    between atoms: _47  and  _50
REMARK   20  A    between atoms: _50  and  _51
REMARK   21  A    between atoms: _51  and  _52
REMARK   22  A    between atoms: _55  and  _57
REMARK   23  A    between atoms: _57  and  _58
REMARK   24  A    between atoms: _57  and  _60
REMARK   25  A    between atoms: _60  and  _61
REMARK   26  A    between atoms: _66  and  _68
REMARK   27  A    between atoms: _68  and  _69
REMARK   28  A    between atoms: _68  and  _71
REMARK   29  A    between atoms: _71  and  _72
REMARK   30  A    between atoms: _72  and  _73
REMARK   31  A    between atoms: _73  and  _74
REMARK   32  A    between atoms: _74  and  _75
REMARK   33  A    between atoms: _79  and  _81
REMARK   34  A    between atoms: _81  and  _82
REMARK   35  A    between atoms: _81  and  _84
REMARK   36  A    between atoms: _84  and  _85
REMARK   37  A    between atoms: _85  and  _86
REMARK   38  A    between atoms: _86  and  _87
REMARK   39  A    between atoms: _96  and  _98
REMARK   40  A    between atoms: _98  and  _99
REMARK   41  A    between atoms: _98  and  _101
REMARK   42  A    between atoms: _101  and  _102
REMARK   43  A    between atoms: _107  and  _109
REMARK   44  A    between atoms: _109  and  _110
REMARK   45  A    between atoms: _109  and  _112
REMARK   46  A    between atoms: _112  and  _113
REMARK   47  A    between atoms: _116  and  _118
REMARK   48  A    between atoms: _118  and  _119
REMARK   49  A    between atoms: _118  and  _121
REMARK   50  A    between atoms: _121  and  _122
REMARK   51  A    between atoms: _132  and  _134
REMARK   52  A    between atoms: _134  and  _135
REMARK   53  A    between atoms: _134  and  _137
REMARK   54  A    between atoms: _137  and  _138
REMARK   55  A    between atoms: _140  and  _142
REMARK   56  A    between atoms: _142  and  _143
REMARK   57  A    between atoms: _142  and  _145
REMARK   58  A    between atoms: _145  and  _146
REMARK   59  A    between atoms: _146  and  _147
REMARK   60  A    between atoms: _152  and  _154
REMARK   61  A    between atoms: _154  and  _155
REMARK   62  A    between atoms: _154  and  _157
REMARK   63  A    between atoms: _157  and  _158
REMARK   64  A    between atoms: _161  and  _163
REMARK   65  A    between atoms: _163  and  _164
REMARK   66  A    between atoms: _163  and  _166
REMARK   67  A    between atoms: _166  and  _167
REMARK   68  A    between atoms: _172  and  _174
REMARK   69  A    between atoms: _174  and  _175
REMARK   70  A    between atoms: _174  and  _177
REMARK   71  A    between atoms: _177  and  _178
REMARK   72  A    between atoms: _178  and  _179
REMARK   73  A    between atoms: _182  and  _184
REMARK   74  A    between atoms: _184  and  _185
REMARK   75  A    between atoms: _184  and  _187
REMARK   76  A    between atoms: _187  and  _188
REMARK   77  A    between atoms: _193  and  _195
REMARK   78  A    between atoms: _195  and  _196
REMARK   79  A    between atoms: _195  and  _198
REMARK   80  A    between atoms: _198  and  _199
REMARK   81  A    between atoms: _202  and  _204
REMARK   82  A    between atoms: _204  and  _205
REMARK   83  A    between atoms: _204  and  _207
REMARK   84  A    between atoms: _207  and  _208
REMARK   85  A    between atoms: _213  and  _214
REMARK   86  A    between atoms: _216  and  _218
REMARK   87  A    between atoms: _218  and  _219
REMARK   88  A    between atoms: _218  and  _221
REMARK   89  A    between atoms: _221  and  _222
REMARK   90  A    between atoms: _222  and  _223
REMARK   91  A    between atoms: _228  and  _230
REMARK   92  A    between atoms: _230  and  _231
REMARK   93  A    between atoms: _230  and  _233
REMARK   94  A    between atoms: _233  and  _234
REMARK   95  A    between atoms: _239  and  _241
REMARK   96  A    between atoms: _241  and  _242
REMARK   97  A    between atoms: _241  and  _244
REMARK   98  A    between atoms: _244  and  _245
REMARK   99  A    between atoms: _248  and  _250
REMARK  100  A    between atoms: _250  and  _251
REMARK  101  A    between atoms: _250  and  _253
REMARK  102  A    between atoms: _253  and  _254
REMARK  103  A    between atoms: _254  and  _255
REMARK  104  A    between atoms: _258  and  _260
REMARK  105  A    between atoms: _260  and  _261
REMARK  106  A    between atoms: _260  and  _263
REMARK  107  A    between atoms: _263  and  _264
REMARK  108  A    between atoms: _267  and  _269
REMARK  109  A    between atoms: _269  and  _270
REMARK  110  A    between atoms: _269  and  _272
REMARK  111  A    between atoms: _272  and  _273
REMARK  112  A    between atoms: _283  and  _285
REMARK  113  A    between atoms: _285  and  _286
REMARK  114  A    between atoms: _288  and  _290
REMARK  115  A    between atoms: _290  and  _291
REMARK  116  A    between atoms: _290  and  _293
REMARK  117  A    between atoms: _293  and  _294
REMARK  118  A    between atoms: _297  and  _299
REMARK  119  A    between atoms: _299  and  _300
REMARK  120  A    between atoms: _299  and  _302
REMARK  121  A    between atoms: _302  and  _303
REMARK  122  A    between atoms: _305  and  _307
REMARK  123  A    between atoms: _307  and  _308
REMARK  124  A    between atoms: _307  and  _310
REMARK  125  A    between atoms: _310  and  _311
REMARK  126  A    between atoms: _321  and  _323
REMARK  127  A    between atoms: _323  and  _324
REMARK  128  A    between atoms: _323  and  _326
REMARK  129  A    between atoms: _326  and  _327
REMARK  130  A    between atoms: _327  and  _328
REMARK  131  A    between atoms: _328  and  _329
REMARK                            x       y       z     vdW  Elec       q    Type
REMARK                         _______ _______ _______ _____ _____    ______ ____
ROOT
ATOM      1  O   HOH     1       2.659  15.888  11.803  0.00  0.00    +0.000 OA
ENDROOT
TORSDOF 0
REMARK  Name = ../refined-set-2016/1v0k/1v0k_pocket.pdb
REMARK  131 active torsions:
REMARK  status: ('A' for Active; 'I' for Inactive)
REMARK    1  A    between atoms: _1  and  _3
REMARK    2  A    between atoms: _3  and  _4
REMARK    3  A    between atoms: _7  and  _9
REMARK    4  A    between atoms: _9  and  _10
REMARK    5  A    between atoms: _13  and  _15
REMARK    6  A    between atoms: _15  and  _16
REMARK    7  A    between atoms: _15  and  _18
REMARK    8  A    between atoms: _18  and  _19
REMARK    9  A    between atoms: _19  and  _20
REMARK   10  A    between atoms: _20  and  _21
REMARK   11  A    between atoms: _30  and  _32
REMARK   12  A    between atoms: _32  and  _33
REMARK   13  A    between atoms: _32  and  _35
REMARK   14  A    between atoms: _35  and  _36
REMARK   15  A    between atoms: _39  and  _41
REMARK   16  A    between atoms: _41  and  _42
REMARK   17  A    between atoms: _45  and  _47
REMARK   18  A    between atoms: _47  and  _48
REMARK   19  A    between atoms: _47  and  _50
REMARK   20  A    between atoms: _50  and  _51
REMARK   21  A    between atoms: _51  and  _52
REMARK   22  A    between atoms: _55  and  _57
REMARK   23  A    between atoms: _57  and  _58
REMARK   24  A    between atoms: _57  and  _60
REMARK   25  A    between atoms: _60  and  _61
REMARK   26  A    between atoms: _66  and  _68
REMARK   27  A    between atoms: _68  and  _69
REMARK   28  A    between atoms: _68  and  _71
REMARK   29  A    between atoms: _71  and  _72
REMARK   30  A    between atoms: _72  and  _73
REMARK   31  A    between atoms: _73  and  _74
REMARK   32  A    between atoms: _74  and  _75
REMARK   33  A    between atoms: _79  and  _81
REMARK   34  A    between atoms: _81  and  _82
REMARK   35  A    between atoms: _81  and  _84
REMARK   36  A    between atoms: _84  and  _85
REMARK   37  A    between atoms: _85  and  _86
REMARK   38  A    between atoms: _86  and  _87
REMARK   39  A    between atoms: _96  and  _98
REMARK   40  A    between atoms: _98  and  _99
REMARK   41  A    between atoms: _98  and  _101
REMARK   42  A    between atoms: _101  and  _102
REMARK   43  A    between atoms: _107  and  _109
REMARK   44  A    between atoms: _109  and  _110
REMARK   45  A    between atoms: _109  and  _112
REMARK   46  A    between atoms: _112  and  _113
REMARK   47  A    between atoms: _116  and  _118
REMARK   48  A    between atoms: _118  and  _119
REMARK   49  A    between atoms: _118  and  _121
REMARK   50  A    between atoms: _121  and  _122
REMARK   51  A    between atoms: _132  and  _134
REMARK   52  A    between atoms: _134  and  _135
REMARK   53  A    between atoms: _134  and  _137
REMARK   54  A    between atoms: _137  and  _138
REMARK   55  A    between atoms: _140  and  _142
REMARK   56  A    between atoms: _142  and  _143
REMARK   57  A    between atoms: _142  and  _145
REMARK   58  A    between atoms: _145  and  _146
REMARK   59  A    between atoms: _146  and  _147
REMARK   60  A    between atoms: _152  and  _154
REMARK   61  A    between atoms: _154  and  _155
REMARK   62  A    between atoms: _154  and  _157
REMARK   63  A    between atoms: _157  and  _158
REMARK   64  A    between atoms: _161  and  _163
REMARK   65  A    between atoms: _163  and  _164
REMARK   66  A    between atoms: _163  and  _166
REMARK   67  A    between atoms: _166  and  _167
REMARK   68  A    between atoms: _172  and  _174
REMARK   69  A    between atoms: _174  and  _175
REMARK   70  A    between atoms: _174  and  _177
REMARK   71  A    between atoms: _177  and  _178
REMARK   72  A    between atoms: _178  and  _179
REMARK   73  A    between atoms: _182  and  _184
REMARK   74  A    between atoms: _184  and  _185
REMARK   75  A    between atoms: _184  and  _187
REMARK   76  A    between atoms: _187  and  _188
REMARK   77  A    between atoms: _193  and  _195
REMARK   78  A    between atoms: _195  and  _196
REMARK   79  A    between atoms: _195  and  _198
REMARK   80  A    between atoms: _198  and  _199
REMARK   81  A    between atoms: _202  and  _204
REMARK   82  A    between atoms: _204  and  _205
REMARK   83  A    between atoms: _204  and  _207
REMARK   84  A    between atoms: _207  and  _208
REMARK   85  A    between atoms: _213  and  _214
REMARK   86  A    between atoms: _216  and  _218
REMARK   87  A    between atoms: _218  and  _219
REMARK   88  A    between atoms: _218  and  _221
REMARK   89  A    between atoms: _221  and  _222
REMARK   90  A    between atoms: _222  and  _223
REMARK   91  A    between atoms: _228  and  _230
REMARK   92  A    between atoms: _230  and  _231
REMARK   93  A    between atoms: _230  and  _233
REMARK   94  A    between atoms: _233  and  _234
REMARK   95  A    between atoms: _239  and  _241
REMARK   96  A    between atoms: _241  and  _242
REMARK   97  A    between atoms: _241  and  _244
REMARK   98  A    between atoms: _244  and  _245
REMARK   99  A    between atoms: _248  and  _250
REMARK  100  A    between atoms: _250  and  _251
REMARK  101  A    between atoms: _250  and  _253
REMARK  102  A    between atoms: _253  and  _254
REMARK  103  A    between atoms: _254  and  _255
REMARK  104  A    between atoms: _258  and  _260
REMARK  105  A    between atoms: _260  and  _261
REMARK  106  A    between atoms: _260  and  _263
REMARK  107  A    between atoms: _263  and  _264
REMARK  108  A    between atoms: _267  and  _269
REMARK  109  A    between atoms: _269  and  _270
REMARK  110  A    between atoms: _269  and  _272
REMARK  111  A    between atoms: _272  and  _273
REMARK  112  A    between atoms: _283  and  _285
REMARK  113  A    between atoms: _285  and  _286
REMARK  114  A    between atoms: _288  and  _290
REMARK  115  A    between atoms: _290  and  _291
REMARK  116  A    between atoms: _290  and  _293
REMARK  117  A    between atoms: _293  and  _294
REMARK  118  A    between atoms: _297  and  _299
REMARK  119  A    between atoms: _299  and  _300
REMARK  120  A    between atoms: _299  and  _302
REMARK  121  A    between atoms: _302  and  _303
REMARK  122  A    between atoms: _305  and  _307
REMARK  123  A    between atoms: _307  and  _308
REMARK  124  A    between atoms: _307  and  _310
REMARK  125  A    between atoms: _310  and  _311
REMARK  126  A    between atoms: _321  and  _323
REMARK  127  A    between atoms: _323  and  _324
REMARK  128  A    between atoms: _323  and  _326
REMARK  129  A    between atoms: _326  and  _327
REMARK  130  A    between atoms: _327  and  _328
REMARK  131  A    between atoms: _328  and  _329
REMARK                            x       y       z     vdW  Elec       q    Type
REMARK                         _______ _______ _______ _____ _____    ______ ____
ROOT
ATOM      1  O   HOH     1       4.707  18.618  13.469  0.00  0.00    +0.000 OA
ENDROOT
TORSDOF 0
REMARK  Name = ../refined-set-2016/1v0k/1v0k_pocket.pdb
REMARK  131 active torsions:
REMARK  status: ('A' for Active; 'I' for Inactive)
REMARK    1  A    between atoms: _1  and  _3
REMARK    2  A    between atoms: _3  and  _4
REMARK    3  A    between atoms: _7  and  _9
REMARK    4  A    between atoms: _9  and  _10
REMARK    5  A    between atoms: _13  and  _15
REMARK    6  A    between atoms: _15  and  _16
REMARK    7  A    between atoms: _15  and  _18
REMARK    8  A    between atoms: _18  and  _19
REMARK    9  A    between atoms: _19  and  _20
REMARK   10  A    between atoms: _20  and  _21
REMARK   11  A    between atoms: _30  and  _32
REMARK   12  A    between atoms: _32  and  _33
REMARK   13  A    between atoms: _32  and  _35
REMARK   14  A    between atoms: _35  and  _36
REMARK   15  A    between atoms: _39  and  _41
REMARK   16  A    between atoms: _41  and  _42
REMARK   17  A    between atoms: _45  and  _47
REMARK   18  A    between atoms: _47  and  _48
REMARK   19  A    between atoms: _47  and  _50
REMARK   20  A    between atoms: _50  and  _51
REMARK   21  A    between atoms: _51  and  _52
REMARK   22  A    between atoms: _55  and  _57
REMARK   23  A    between atoms: _57  and  _58
REMARK   24  A    between atoms: _57  and  _60
REMARK   25  A    between atoms: _60  and  _61
REMARK   26  A    between atoms: _66  and  _68
REMARK   27  A    between atoms: _68  and  _69
REMARK   28  A    between atoms: _68  and  _71
REMARK   29  A    between atoms: _71  and  _72
REMARK   30  A    between atoms: _72  and  _73
REMARK   31  A    between atoms: _73  and  _74
REMARK   32  A    between atoms: _74  and  _75
REMARK   33  A    between atoms: _79  and  _81
REMARK   34  A    between atoms: _81  and  _82
REMARK   35  A    between atoms: _81  and  _84
REMARK   36  A    between atoms: _84  and  _85
REMARK   37  A    between atoms: _85  and  _86
REMARK   38  A    between atoms: _86  and  _87
REMARK   39  A    between atoms: _96  and  _98
REMARK   40  A    between atoms: _98  and  _99
REMARK   41  A    between atoms: _98  and  _101
REMARK   42  A    between atoms: _101  and  _102
REMARK   43  A    between atoms: _107  and  _109
REMARK   44  A    between atoms: _109  and  _110
REMARK   45  A    between atoms: _109  and  _112
REMARK   46  A    between atoms: _112  and  _113
REMARK   47  A    between atoms: _116  and  _118
REMARK   48  A    between atoms: _118  and  _119
REMARK   49  A    between atoms: _118  and  _121
REMARK   50  A    between atoms: _121  and  _122
REMARK   51  A    between atoms: _132  and  _134
REMARK   52  A    between atoms: _134  and  _135
REMARK   53  A    between atoms: _134  and  _137
REMARK   54  A    between atoms: _137  and  _138
REMARK   55  A    between atoms: _140  and  _142
REMARK   56  A    between atoms: _142  and  _143
REMARK   57  A    between atoms: _142  and  _145
REMARK   58  A    between atoms: _145  and  _146
REMARK   59  A    between atoms: _146  and  _147
REMARK   60  A    between atoms: _152  and  _154
REMARK   61  A    between atoms: _154  and  _155
REMARK   62  A    between atoms: _154  and  _157
REMARK   63  A    between atoms: _157  and  _158
REMARK   64  A    between atoms: _161  and  _163
REMARK   65  A    between atoms: _163  and  _164
REMARK   66  A    between atoms: _163  and  _166
REMARK   67  A    between atoms: _166  and  _167
REMARK   68  A    between atoms: _172  and  _174
REMARK   69  A    between atoms: _174  and  _175
REMARK   70  A    between atoms: _174  and  _177
REMARK   71  A    between atoms: _177  and  _178
REMARK   72  A    between atoms: _178  and  _179
REMARK   73  A    between atoms: _182  and  _184
REMARK   74  A    between atoms: _184  and  _185
REMARK   75  A    between atoms: _184  and  _187
REMARK   76  A    between atoms: _187  and  _188
REMARK   77  A    between atoms: _193  and  _195
REMARK   78  A    between atoms: _195  and  _196
REMARK   79  A    between atoms: _195  and  _198
REMARK   80  A    between atoms: _198  and  _199
REMARK   81  A    between atoms: _202  and  _204
REMARK   82  A    between atoms: _204  and  _205
REMARK   83  A    between atoms: _204  and  _207
REMARK   84  A    between atoms: _207  and  _208
REMARK   85  A    between atoms: _213  and  _214
REMARK   86  A    between atoms: _216  and  _218
REMARK   87  A    between atoms: _218  and  _219
REMARK   88  A    between atoms: _218  and  _221
REMARK   89  A    between atoms: _221  and  _222
REMARK   90  A    between atoms: _222  and  _223
REMARK   91  A    between atoms: _228  and  _230
REMARK   92  A    between atoms: _230  and  _231
REMARK   93  A    between atoms: _230  and  _233
REMARK   94  A    between atoms: _233  and  _234
REMARK   95  A    between atoms: _239  and  _241
REMARK   96  A    between atoms: _241  and  _242
REMARK   97  A    between atoms: _241  and  _244
REMARK   98  A    between atoms: _244  and  _245
REMARK   99  A    between atoms: _248  and  _250
REMARK  100  A    between atoms: _250  and  _251
REMARK  101  A    between atoms: _250  and  _253
REMARK  102  A    between atoms: _253  and  _254
REMARK  103  A    between atoms: _254  and  _255
REMARK  104  A    between atoms: _258  and  _260
REMARK  105  A    between atoms: _260  and  _261
REMARK  106  A    between atoms: _260  and  _263
REMARK  107  A    between atoms: _263  and  _264
REMARK  108  A    between atoms: _267  and  _269
REMARK  109  A    between atoms: _269  and  _270
REMARK  110  A    between atoms: _269  and  _272
REMARK  111  A    between atoms: _272  and  _273
REMARK  112  A    between atoms: _283  and  _285
REMARK  113  A    between atoms: _285  and  _286
REMARK  114  A    between atoms: _288  and  _290
REMARK  115  A    between atoms: _290  and  _291
REMARK  116  A    between atoms: _290  and  _293
REMARK  117  A    between atoms: _293  and  _294
REMARK  118  A    between atoms: _297  and  _299
REMARK  119  A    between atoms: _299  and  _300
REMARK  120  A    between atoms: _299  and  _302
REMARK  121  A    between atoms: _302  and  _303
REMARK  122  A    between atoms: _305  and  _307
REMARK  123  A    between atoms: _307  and  _308
REMARK  124  A    between atoms: _307  and  _310
REMARK  125  A    between atoms: _310  and  _311
REMARK  126  A    between atoms: _321  and  _323
REMARK  127  A    between atoms: _323  and  _324
REMARK  128  A    between atoms: _323  and  _326
REMARK  129  A    between atoms: _326  and  _327
REMARK  130  A    between atoms: _327  and  _328
REMARK  131  A    between atoms: _328  and  _329
REMARK                            x       y       z     vdW  Elec       q    Type
REMARK                         _______ _______ _______ _____ _____    ______ ____
ROOT
ATOM      1  O   HOH     1       6.792  19.442  24.635  0.00  0.00    +0.000 OA
ENDROOT
TORSDOF 0
REMARK  Name = ../refined-set-2016/1v0k/1v0k_pocket.pdb
REMARK  131 active torsions:
REMARK  status: ('A' for Active; 'I' for Inactive)
REMARK    1  A    between atoms: _1  and  _3
REMARK    2  A    between atoms: _3  and  _4
REMARK    3  A    between atoms: _7  and  _9
REMARK    4  A    between atoms: _9  and  _10
REMARK    5  A    between atoms: _13  and  _15
REMARK    6  A    between atoms: _15  and  _16
REMARK    7  A    between atoms: _15  and  _18
REMARK    8  A    between atoms: _18  and  _19
REMARK    9  A    between atoms: _19  and  _20
REMARK   10  A    between atoms: _20  and  _21
REMARK   11  A    between atoms: _30  and  _32
REMARK   12  A    between atoms: _32  and  _33
REMARK   13  A    between atoms: _32  and  _35
REMARK   14  A    between atoms: _35  and  _36
REMARK   15  A    between atoms: _39  and  _41
REMARK   16  A    between atoms: _41  and  _42
REMARK   17  A    between atoms: _45  and  _47
REMARK   18  A    between atoms: _47  and  _48
REMARK   19  A    between atoms: _47  and  _50
REMARK   20  A    between atoms: _50  and  _51
REMARK   21  A    between atoms: _51  and  _52
REMARK   22  A    between atoms: _55  and  _57
REMARK   23  A    between atoms: _57  and  _58
REMARK   24  A    between atoms: _57  and  _60
REMARK   25  A    between atoms: _60  and  _61
REMARK   26  A    between atoms: _66  and  _68
REMARK   27  A    between atoms: _68  and  _69
REMARK   28  A    between atoms: _68  and  _71
REMARK   29  A    between atoms: _71  and  _72
REMARK   30  A    between atoms: _72  and  _73
REMARK   31  A    between atoms: _73  and  _74
REMARK   32  A    between atoms: _74  and  _75
REMARK   33  A    between atoms: _79  and  _81
REMARK   34  A    between atoms: _81  and  _82
REMARK   35  A    between atoms: _81  and  _84
REMARK   36  A    between atoms: _84  and  _85
REMARK   37  A    between atoms: _85  and  _86
REMARK   38  A    between atoms: _86  and  _87
REMARK   39  A    between atoms: _96  and  _98
REMARK   40  A    between atoms: _98  and  _99
REMARK   41  A    between atoms: _98  and  _101
REMARK   42  A    between atoms: _101  and  _102
REMARK   43  A    between atoms: _107  and  _109
REMARK   44  A    between atoms: _109  and  _110
REMARK   45  A    between atoms: _109  and  _112
REMARK   46  A    between atoms: _112  and  _113
REMARK   47  A    between atoms: _116  and  _118
REMARK   48  A    between atoms: _118  and  _119
REMARK   49  A    between atoms: _118  and  _121
REMARK   50  A    between atoms: _121  and  _122
REMARK   51  A    between atoms: _132  and  _134
REMARK   52  A    between atoms: _134  and  _135
REMARK   53  A    between atoms: _134  and  _137
REMARK   54  A    between atoms: _137  and  _138
REMARK   55  A    between atoms: _140  and  _142
REMARK   56  A    between atoms: _142  and  _143
REMARK   57  A    between atoms: _142  and  _145
REMARK   58  A    between atoms: _145  and  _146
REMARK   59  A    between atoms: _146  and  _147
REMARK   60  A    between atoms: _152  and  _154
REMARK   61  A    between atoms: _154  and  _155
REMARK   62  A    between atoms: _154  and  _157
REMARK   63  A    between atoms: _157  and  _158
REMARK   64  A    between atoms: _161  and  _163
REMARK   65  A    between atoms: _163  and  _164
REMARK   66  A    between atoms: _163  and  _166
REMARK   67  A    between atoms: _166  and  _167
REMARK   68  A    between atoms: _172  and  _174
REMARK   69  A    between atoms: _174  and  _175
REMARK   70  A    between atoms: _174  and  _177
REMARK   71  A    between atoms: _177  and  _178
REMARK   72  A    between atoms: _178  and  _179
REMARK   73  A    between atoms: _182  and  _184
REMARK   74  A    between atoms: _184  and  _185
REMARK   75  A    between atoms: _184  and  _187
REMARK   76  A    between atoms: _187  and  _188
REMARK   77  A    between atoms: _193  and  _195
REMARK   78  A    between atoms: _195  and  _196
REMARK   79  A    between atoms: _195  and  _198
REMARK   80  A    between atoms: _198  and  _199
REMARK   81  A    between atoms: _202  and  _204
REMARK   82  A    between atoms: _204  and  _205
REMARK   83  A    between atoms: _204  and  _207
REMARK   84  A    between atoms: _207  and  _208
REMARK   85  A    between atoms: _213  and  _214
REMARK   86  A    between atoms: _216  and  _218
REMARK   87  A    between atoms: _218  and  _219
REMARK   88  A    between atoms: _218  and  _221
REMARK   89  A    between atoms: _221  and  _222
REMARK   90  A    between atoms: _222  and  _223
REMARK   91  A    between atoms: _228  and  _230
REMARK   92  A    between atoms: _230  and  _231
REMARK   93  A    between atoms: _230  and  _233
REMARK   94  A    between atoms: _233  and  _234
REMARK   95  A    between atoms: _239  and  _241
REMARK   96  A    between atoms: _241  and  _242
REMARK   97  A    between atoms: _241  and  _244
REMARK   98  A    between atoms: _244  and  _245
REMARK   99  A    between atoms: _248  and  _250
REMARK  100  A    between atoms: _250  and  _251
REMARK  101  A    between atoms: _250  and  _253
REMARK  102  A    between atoms: _253  and  _254
REMARK  103  A    between atoms: _254  and  _255
REMARK  104  A    between atoms: _258  and  _260
REMARK  105  A    between atoms: _260  and  _261
REMARK  106  A    between atoms: _260  and  _263
REMARK  107  A    between atoms: _263  and  _264
REMARK  108  A    between atoms: _267  and  _269
REMARK  109  A    between atoms: _269  and  _270
REMARK  110  A    between atoms: _269  and  _272
REMARK  111  A    between atoms: _272  and  _273
REMARK  112  A    between atoms: _283  and  _285
REMARK  113  A    between atoms: _285  and  _286
REMARK  114  A    between atoms: _288  and  _290
REMARK  115  A    between atoms: _290  and  _291
REMARK  116  A    between atoms: _290  and  _293
REMARK  117  A    between atoms: _293  and  _294
REMARK  118  A    between atoms: _297  and  _299
REMARK  119  A    between atoms: _299  and  _300
REMARK  120  A    between atoms: _299  and  _302
REMARK  121  A    between atoms: _302  and  _303
REMARK  122  A    between atoms: _305  and  _307
REMARK  123  A    between atoms: _307  and  _308
REMARK  124  A    between atoms: _307  and  _310
REMARK  125  A    between atoms: _310  and  _311
REMARK  126  A    between atoms: _321  and  _323
REMARK  127  A    between atoms: _323  and  _324
REMARK  128  A    between atoms: _323  and  _326
REMARK  129  A    between atoms: _326  and  _327
REMARK  130  A    between atoms: _327  and  _328
REMARK  131  A    between atoms: _328  and  _329
REMARK                            x       y       z     vdW  Elec       q    Type
REMARK                         _______ _______ _______ _____ _____    ______ ____
ROOT
ATOM      1  O   HOH     1       2.381  18.039  17.229  0.00  0.00    +0.000 OA
ENDROOT
TORSDOF 0
REMARK  Name = ../refined-set-2016/1v0k/1v0k_pocket.pdb
REMARK  131 active torsions:
REMARK  status: ('A' for Active; 'I' for Inactive)
REMARK    1  A    between atoms: _1  and  _3
REMARK    2  A    between atoms: _3  and  _4
REMARK    3  A    between atoms: _7  and  _9
REMARK    4  A    between atoms: _9  and  _10
REMARK    5  A    between atoms: _13  and  _15
REMARK    6  A    between atoms: _15  and  _16
REMARK    7  A    between atoms: _15  and  _18
REMARK    8  A    between atoms: _18  and  _19
REMARK    9  A    between atoms: _19  and  _20
REMARK   10  A    between atoms: _20  and  _21
REMARK   11  A    between atoms: _30  and  _32
REMARK   12  A    between atoms: _32  and  _33
REMARK   13  A    between atoms: _32  and  _35
REMARK   14  A    between atoms: _35  and  _36
REMARK   15  A    between atoms: _39  and  _41
REMARK   16  A    between atoms: _41  and  _42
REMARK   17  A    between atoms: _45  and  _47
REMARK   18  A    between atoms: _47  and  _48
REMARK   19  A    between atoms: _47  and  _50
REMARK   20  A    between atoms: _50  and  _51
REMARK   21  A    between atoms: _51  and  _52
REMARK   22  A    between atoms: _55  and  _57
REMARK   23  A    between atoms: _57  and  _58
REMARK   24  A    between atoms: _57  and  _60
REMARK   25  A    between atoms: _60  and  _61
REMARK   26  A    between atoms: _66  and  _68
REMARK   27  A    between atoms: _68  and  _69
REMARK   28  A    between atoms: _68  and  _71
REMARK   29  A    between atoms: _71  and  _72
REMARK   30  A    between atoms: _72  and  _73
REMARK   31  A    between atoms: _73  and  _74
REMARK   32  A    between atoms: _74  and  _75
REMARK   33  A    between atoms: _79  and  _81
REMARK   34  A    between atoms: _81  and  _82
REMARK   35  A    between atoms: _81  and  _84
REMARK   36  A    between atoms: _84  and  _85
REMARK   37  A    between atoms: _85  and  _86
REMARK   38  A    between atoms: _86  and  _87
REMARK   39  A    between atoms: _96  and  _98
REMARK   40  A    between atoms: _98  and  _99
REMARK   41  A    between atoms: _98  and  _101
REMARK   42  A    between atoms: _101  and  _102
REMARK   43  A    between atoms: _107  and  _109
REMARK   44  A    between atoms: _109  and  _110
REMARK   45  A    between atoms: _109  and  _112
REMARK   46  A    between atoms: _112  and  _113
REMARK   47  A    between atoms: _116  and  _118
REMARK   48  A    between atoms: _118  and  _119
REMARK   49  A    between atoms: _118  and  _121
REMARK   50  A    between atoms: _121  and  _122
REMARK   51  A    between atoms: _132  and  _134
REMARK   52  A    between atoms: _134  and  _135
REMARK   53  A    between atoms: _134  and  _137
REMARK   54  A    between atoms: _137  and  _138
REMARK   55  A    between atoms: _140  and  _142
REMARK   56  A    between atoms: _142  and  _143
REMARK   57  A    between atoms: _142  and  _145
REMARK   58  A    between atoms: _145  and  _146
REMARK   59  A    between atoms: _146  and  _147
REMARK   60  A    between atoms: _152  and  _154
REMARK   61  A    between atoms: _154  and  _155
REMARK   62  A    between atoms: _154  and  _157
REMARK   63  A    between atoms: _157  and  _158
REMARK   64  A    between atoms: _161  and  _163
REMARK   65  A    between atoms: _163  and  _164
REMARK   66  A    between atoms: _163  and  _166
REMARK   67  A    between atoms: _166  and  _167
REMARK   68  A    between atoms: _172  and  _174
REMARK   69  A    between atoms: _174  and  _175
REMARK   70  A    between atoms: _174  and  _177
REMARK   71  A    between atoms: _177  and  _178
REMARK   72  A    between atoms: _178  and  _179
REMARK   73  A    between atoms: _182  and  _184
REMARK   74  A    between atoms: _184  and  _185
REMARK   75  A    between atoms: _184  and  _187
REMARK   76  A    between atoms: _187  and  _188
REMARK   77  A    between atoms: _193  and  _195
REMARK   78  A    between atoms: _195  and  _196
REMARK   79  A    between atoms: _195  and  _198
REMARK   80  A    between atoms: _198  and  _199
REMARK   81  A    between atoms: _202  and  _204
REMARK   82  A    between atoms: _204  and  _205
REMARK   83  A    between atoms: _204  and  _207
REMARK   84  A    between atoms: _207  and  _208
REMARK   85  A    between atoms: _213  and  _214
REMARK   86  A    between atoms: _216  and  _218
REMARK   87  A    between atoms: _218  and  _219
REMARK   88  A    between atoms: _218  and  _221
REMARK   89  A    between atoms: _221  and  _222
REMARK   90  A    between atoms: _222  and  _223
REMARK   91  A    between atoms: _228  and  _230
REMARK   92  A    between atoms: _230  and  _231
REMARK   93  A    between atoms: _230  and  _233
REMARK   94  A    between atoms: _233  and  _234
REMARK   95  A    between atoms: _239  and  _241
REMARK   96  A    between atoms: _241  and  _242
REMARK   97  A    between atoms: _241  and  _244
REMARK   98  A    between atoms: _244  and  _245
REMARK   99  A    between atoms: _248  and  _250
REMARK  100  A    between atoms: _250  and  _251
REMARK  101  A    between atoms: _250  and  _253
REMARK  102  A    between atoms: _253  and  _254
REMARK  103  A    between atoms: _254  and  _255
REMARK  104  A    between atoms: _258  and  _260
REMARK  105  A    between atoms: _260  and  _261
REMARK  106  A    between atoms: _260  and  _263
REMARK  107  A    between atoms: _263  and  _264
REMARK  108  A    between atoms: _267  and  _269
REMARK  109  A    between atoms: _269  and  _270
REMARK  110  A    between atoms: _269  and  _272
REMARK  111  A    between atoms: _272  and  _273
REMARK  112  A    between atoms: _283  and  _285
REMARK  113  A    between atoms: _285  and  _286
REMARK  114  A    between atoms: _288  and  _290
REMARK  115  A    between atoms: _290  and  _291
REMARK  116  A    between atoms: _290  and  _293
REMARK  117  A    between atoms: _293  and  _294
REMARK  118  A    between atoms: _297  and  _299
REMARK  119  A    between atoms: _299  and  _300
REMARK  120  A    between atoms: _299  and  _302
REMARK  121  A    between atoms: _302  and  _303
REMARK  122  A    between atoms: _305  and  _307
REMARK  123  A    between atoms: _307  and  _308
REMARK  124  A    between atoms: _307  and  _310
REMARK  125  A    between atoms: _310  and  _311
REMARK  126  A    between atoms: _321  and  _323
REMARK  127  A    between atoms: _323  and  _324
REMARK  128  A    between atoms: _323  and  _326
REMARK  129  A    between atoms: _326  and  _327
REMARK  130  A    between atoms: _327  and  _328
REMARK  131  A    between atoms: _328  and  _329
REMARK                            x       y       z     vdW  Elec       q    Type
REMARK                         _______ _______ _______ _____ _____    ______ ____
ROOT
ATOM      1  O   HOH     1      -0.727  15.228  19.262  0.00  0.00    +0.000 OA
ENDROOT
TORSDOF 0
REMARK  Name = ../refined-set-2016/1v0k/1v0k_pocket.pdb
REMARK  131 active torsions:
REMARK  status: ('A' for Active; 'I' for Inactive)
REMARK    1  A    between atoms: _1  and  _3
REMARK    2  A    between atoms: _3  and  _4
REMARK    3  A    between atoms: _7  and  _9
REMARK    4  A    between atoms: _9  and  _10
REMARK    5  A    between atoms: _13  and  _15
REMARK    6  A    between atoms: _15  and  _16
REMARK    7  A    between atoms: _15  and  _18
REMARK    8  A    between atoms: _18  and  _19
REMARK    9  A    between atoms: _19  and  _20
REMARK   10  A    between atoms: _20  and  _21
REMARK   11  A    between atoms: _30  and  _32
REMARK   12  A    between atoms: _32  and  _33
REMARK   13  A    between atoms: _32  and  _35
REMARK   14  A    between atoms: _35  and  _36
REMARK   15  A    between atoms: _39  and  _41
REMARK   16  A    between atoms: _41  and  _42
REMARK   17  A    between atoms: _45  and  _47
REMARK   18  A    between atoms: _47  and  _48
REMARK   19  A    between atoms: _47  and  _50
REMARK   20  A    between atoms: _50  and  _51
REMARK   21  A    between atoms: _51  and  _52
REMARK   22  A    between atoms: _55  and  _57
REMARK   23  A    between atoms: _57  and  _58
REMARK   24  A    between atoms: _57  and  _60
REMARK   25  A    between atoms: _60  and  _61
REMARK   26  A    between atoms: _66  and  _68
REMARK   27  A    between atoms: _68  and  _69
REMARK   28  A    between atoms: _68  and  _71
REMARK   29  A    between atoms: _71  and  _72
REMARK   30  A    between atoms: _72  and  _73
REMARK   31  A    between atoms: _73  and  _74
REMARK   32  A    between atoms: _74  and  _75
REMARK   33  A    between atoms: _79  and  _81
REMARK   34  A    between atoms: _81  and  _82
REMARK   35  A    between atoms: _81  and  _84
REMARK   36  A    between atoms: _84  and  _85
REMARK   37  A    between atoms: _85  and  _86
REMARK   38  A    between atoms: _86  and  _87
REMARK   39  A    between atoms: _96  and  _98
REMARK   40  A    between atoms: _98  and  _99
REMARK   41  A    between atoms: _98  and  _101
REMARK   42  A    between atoms: _101  and  _102
REMARK   43  A    between atoms: _107  and  _109
REMARK   44  A    between atoms: _109  and  _110
REMARK   45  A    between atoms: _109  and  _112
REMARK   46  A    between atoms: _112  and  _113
REMARK   47  A    between atoms: _116  and  _118
REMARK   48  A    between atoms: _118  and  _119
REMARK   49  A    between atoms: _118  and  _121
REMARK   50  A    between atoms: _121  and  _122
REMARK   51  A    between atoms: _132  and  _134
REMARK   52  A    between atoms: _134  and  _135
REMARK   53  A    between atoms: _134  and  _137
REMARK   54  A    between atoms: _137  and  _138
REMARK   55  A    between atoms: _140  and  _142
REMARK   56  A    between atoms: _142  and  _143
REMARK   57  A    between atoms: _142  and  _145
REMARK   58  A    between atoms: _145  and  _146
REMARK   59  A    between atoms: _146  and  _147
REMARK   60  A    between atoms: _152  and  _154
REMARK   61  A    between atoms: _154  and  _155
REMARK   62  A    between atoms: _154  and  _157
REMARK   63  A    between atoms: _157  and  _158
REMARK   64  A    between atoms: _161  and  _163
REMARK   65  A    between atoms: _163  and  _164
REMARK   66  A    between atoms: _163  and  _166
REMARK   67  A    between atoms: _166  and  _167
REMARK   68  A    between atoms: _172  and  _174
REMARK   69  A    between atoms: _174  and  _175
REMARK   70  A    between atoms: _174  and  _177
REMARK   71  A    between atoms: _177  and  _178
REMARK   72  A    between atoms: _178  and  _179
REMARK   73  A    between atoms: _182  and  _184
REMARK   74  A    between atoms: _184  and  _185
REMARK   75  A    between atoms: _184  and  _187
REMARK   76  A    between atoms: _187  and  _188
REMARK   77  A    between atoms: _193  and  _195
REMARK   78  A    between atoms: _195  and  _196
REMARK   79  A    between atoms: _195  and  _198
REMARK   80  A    between atoms: _198  and  _199
REMARK   81  A    between atoms: _202  and  _204
REMARK   82  A    between atoms: _204  and  _205
REMARK   83  A    between atoms: _204  and  _207
REMARK   84  A    between atoms: _207  and  _208
REMARK   85  A    between atoms: _213  and  _214
REMARK   86  A    between atoms: _216  and  _218
REMARK   87  A    between atoms: _218  and  _219
REMARK   88  A    between atoms: _218  and  _221
REMARK   89  A    between atoms: _221  and  _222
REMARK   90  A    between atoms: _222  and  _223
REMARK   91  A    between atoms: _228  and  _230
REMARK   92  A    between atoms: _230  and  _231
REMARK   93  A    between atoms: _230  and  _233
REMARK   94  A    between atoms: _233  and  _234
REMARK   95  A    between atoms: _239  and  _241
REMARK   96  A    between atoms: _241  and  _242
REMARK   97  A    between atoms: _241  and  _244
REMARK   98  A    between atoms: _244  and  _245
REMARK   99  A    between atoms: _248  and  _250
REMARK  100  A    between atoms: _250  and  _251
REMARK  101  A    between atoms: _250  and  _253
REMARK  102  A    between atoms: _253  and  _254
REMARK  103  A    between atoms: _254  and  _255
REMARK  104  A    between atoms: _258  and  _260
REMARK  105  A    between atoms: _260  and  _261
REMARK  106  A    between atoms: _260  and  _263
REMARK  107  A    between atoms: _263  and  _264
REMARK  108  A    between atoms: _267  and  _269
REMARK  109  A    between atoms: _269  and  _270
REMARK  110  A    between atoms: _269  and  _272
REMARK  111  A    between atoms: _272  and  _273
REMARK  112  A    between atoms: _283  and  _285
REMARK  113  A    between atoms: _285  and  _286
REMARK  114  A    between atoms: _288  and  _290
REMARK  115  A    between atoms: _290  and  _291
REMARK  116  A    between atoms: _290  and  _293
REMARK  117  A    between atoms: _293  and  _294
REMARK  118  A    between atoms: _297  and  _299
REMARK  119  A    between atoms: _299  and  _300
REMARK  120  A    between atoms: _299  and  _302
REMARK  121  A    between atoms: _302  and  _303
REMARK  122  A    between atoms: _305  and  _307
REMARK  123  A    between atoms: _307  and  _308
REMARK  124  A    between atoms: _307  and  _310
REMARK  125  A    between atoms: _310  and  _311
REMARK  126  A    between atoms: _321  and  _323
REMARK  127  A    between atoms: _323  and  _324
REMARK  128  A    between atoms: _323  and  _326
REMARK  129  A    between atoms: _326  and  _327
REMARK  130  A    between atoms: _327  and  _328
REMARK  131  A    between atoms: _328  and  _329
REMARK                            x       y       z     vdW  Elec       q    Type
REMARK                         _______ _______ _______ _____ _____    ______ ____
ROOT
ATOM      1  O   HOH     1       4.987  18.666  17.827  0.00  0.00    +0.000 OA
ENDROOT
TORSDOF 0
REMARK  Name = ../refined-set-2016/1v0k/1v0k_pocket.pdb
REMARK  131 active torsions:
REMARK  status: ('A' for Active; 'I' for Inactive)
REMARK    1  A    between atoms: _1  and  _3
REMARK    2  A    between atoms: _3  and  _4
REMARK    3  A    between atoms: _7  and  _9
REMARK    4  A    between atoms: _9  and  _10
REMARK    5  A    between atoms: _13  and  _15
REMARK    6  A    between atoms: _15  and  _16
REMARK    7  A    between atoms: _15  and  _18
REMARK    8  A    between atoms: _18  and  _19
REMARK    9  A    between atoms: _19  and  _20
REMARK   10  A    between atoms: _20  and  _21
REMARK   11  A    between atoms: _30  and  _32
REMARK   12  A    between atoms: _32  and  _33
REMARK   13  A    between atoms: _32  and  _35
REMARK   14  A    between atoms: _35  and  _36
REMARK   15  A    between atoms: _39  and  _41
REMARK   16  A    between atoms: _41  and  _42
REMARK   17  A    between atoms: _45  and  _47
REMARK   18  A    between atoms: _47  and  _48
REMARK   19  A    between atoms: _47  and  _50
REMARK   20  A    between atoms: _50  and  _51
REMARK   21  A    between atoms: _51  and  _52
REMARK   22  A    between atoms: _55  and  _57
REMARK   23  A    between atoms: _57  and  _58
REMARK   24  A    between atoms: _57  and  _60
REMARK   25  A    between atoms: _60  and  _61
REMARK   26  A    between atoms: _66  and  _68
REMARK   27  A    between atoms: _68  and  _69
REMARK   28  A    between atoms: _68  and  _71
REMARK   29  A    between atoms: _71  and  _72
REMARK   30  A    between atoms: _72  and  _73
REMARK   31  A    between atoms: _73  and  _74
REMARK   32  A    between atoms: _74  and  _75
REMARK   33  A    between atoms: _79  and  _81
REMARK   34  A    between atoms: _81  and  _82
REMARK   35  A    between atoms: _81  and  _84
REMARK   36  A    between atoms: _84  and  _85
REMARK   37  A    between atoms: _85  and  _86
REMARK   38  A    between atoms: _86  and  _87
REMARK   39  A    between atoms: _96  and  _98
REMARK   40  A    between atoms: _98  and  _99
REMARK   41  A    between atoms: _98  and  _101
REMARK   42  A    between atoms: _101  and  _102
REMARK   43  A    between atoms: _107  and  _109
REMARK   44  A    between atoms: _109  and  _110
REMARK   45  A    between atoms: _109  and  _112
REMARK   46  A    between atoms: _112  and  _113
REMARK   47  A    between atoms: _116  and  _118
REMARK   48  A    between atoms: _118  and  _119
REMARK   49  A    between atoms: _118  and  _121
REMARK   50  A    between atoms: _121  and  _122
REMARK   51  A    between atoms: _132  and  _134
REMARK   52  A    between atoms: _134  and  _135
REMARK   53  A    between atoms: _134  and  _137
REMARK   54  A    between atoms: _137  and  _138
REMARK   55  A    between atoms: _140  and  _142
REMARK   56  A    between atoms: _142  and  _143
REMARK   57  A    between atoms: _142  and  _145
REMARK   58  A    between atoms: _145  and  _146
REMARK   59  A    between atoms: _146  and  _147
REMARK   60  A    between atoms: _152  and  _154
REMARK   61  A    between atoms: _154  and  _155
REMARK   62  A    between atoms: _154  and  _157
REMARK   63  A    between atoms: _157  and  _158
REMARK   64  A    between atoms: _161  and  _163
REMARK   65  A    between atoms: _163  and  _164
REMARK   66  A    between atoms: _163  and  _166
REMARK   67  A    between atoms: _166  and  _167
REMARK   68  A    between atoms: _172  and  _174
REMARK   69  A    between atoms: _174  and  _175
REMARK   70  A    between atoms: _174  and  _177
REMARK   71  A    between atoms: _177  and  _178
REMARK   72  A    between atoms: _178  and  _179
REMARK   73  A    between atoms: _182  and  _184
REMARK   74  A    between atoms: _184  and  _185
REMARK   75  A    between atoms: _184  and  _187
REMARK   76  A    between atoms: _187  and  _188
REMARK   77  A    between atoms: _193  and  _195
REMARK   78  A    between atoms: _195  and  _196
REMARK   79  A    between atoms: _195  and  _198
REMARK   80  A    between atoms: _198  and  _199
REMARK   81  A    between atoms: _202  and  _204
REMARK   82  A    between atoms: _204  and  _205
REMARK   83  A    between atoms: _204  and  _207
REMARK   84  A    between atoms: _207  and  _208
REMARK   85  A    between atoms: _213  and  _214
REMARK   86  A    between atoms: _216  and  _218
REMARK   87  A    between atoms: _218  and  _219
REMARK   88  A    between atoms: _218  and  _221
REMARK   89  A    between atoms: _221  and  _222
REMARK   90  A    between atoms: _222  and  _223
REMARK   91  A    between atoms: _228  and  _230
REMARK   92  A    between atoms: _230  and  _231
REMARK   93  A    between atoms: _230  and  _233
REMARK   94  A    between atoms: _233  and  _234
REMARK   95  A    between atoms: _239  and  _241
REMARK   96  A    between atoms: _241  and  _242
REMARK   97  A    between atoms: _241  and  _244
REMARK   98  A    between atoms: _244  and  _245
REMARK   99  A    between atoms: _248  and  _250
REMARK  100  A    between atoms: _250  and  _251
REMARK  101  A    between atoms: _250  and  _253
REMARK  102  A    between atoms: _253  and  _254
REMARK  103  A    between atoms: _254  and  _255
REMARK  104  A    between atoms: _258  and  _260
REMARK  105  A    between atoms: _260  and  _261
REMARK  106  A    between atoms: _260  and  _263
REMARK  107  A    between atoms: _263  and  _264
REMARK  108  A    between atoms: _267  and  _269
REMARK  109  A    between atoms: _269  and  _270
REMARK  110  A    between atoms: _269  and  _272
REMARK  111  A    between atoms: _272  and  _273
REMARK  112  A    between atoms: _283  and  _285
REMARK  113  A    between atoms: _285  and  _286
REMARK  114  A    between atoms: _288  and  _290
REMARK  115  A    between atoms: _290  and  _291
REMARK  116  A    between atoms: _290  and  _293
REMARK  117  A    between atoms: _293  and  _294
REMARK  118  A    between atoms: _297  and  _299
REMARK  119  A    between atoms: _299  and  _300
REMARK  120  A    between atoms: _299  and  _302
REMARK  121  A    between atoms: _302  and  _303
REMARK  122  A    between atoms: _305  and  _307
REMARK  123  A    between atoms: _307  and  _308
REMARK  124  A    between atoms: _307  and  _310
REMARK  125  A    between atoms: _310  and  _311
REMARK  126  A    between atoms: _321  and  _323
REMARK  127  A    between atoms: _323  and  _324
REMARK  128  A    between atoms: _323  and  _326
REMARK  129  A    between atoms: _326  and  _327
REMARK  130  A    between atoms: _327  and  _328
REMARK  131  A    between atoms: _328  and  _329
REMARK                            x       y       z     vdW  Elec       q    Type
REMARK                         _______ _______ _______ _____ _____    ______ ____
ROOT
ATOM      1  O   HOH     1      -1.174  19.381  17.566  0.00  0.00    +0.000 OA
ENDROOT
TORSDOF 0
REMARK  Name = ../refined-set-2016/1v0k/1v0k_pocket.pdb
REMARK  131 active torsions:
REMARK  status: ('A' for Active; 'I' for Inactive)
REMARK    1  A    between atoms: _1  and  _3
REMARK    2  A    between atoms: _3  and  _4
REMARK    3  A    between atoms: _7  and  _9
REMARK    4  A    between atoms: _9  and  _10
REMARK    5  A    between atoms: _13  and  _15
REMARK    6  A    between atoms: _15  and  _16
REMARK    7  A    between atoms: _15  and  _18
REMARK    8  A    between atoms: _18  and  _19
REMARK    9  A    between atoms: _19  and  _20
REMARK   10  A    between atoms: _20  and  _21
REMARK   11  A    between atoms: _30  and  _32
REMARK   12  A    between atoms: _32  and  _33
REMARK   13  A    between atoms: _32  and  _35
REMARK   14  A    between atoms: _35  and  _36
REMARK   15  A    between atoms: _39  and  _41
REMARK   16  A    between atoms: _41  and  _42
REMARK   17  A    between atoms: _45  and  _47
REMARK   18  A    between atoms: _47  and  _48
REMARK   19  A    between atoms: _47  and  _50
REMARK   20  A    between atoms: _50  and  _51
REMARK   21  A    between atoms: _51  and  _52
REMARK   22  A    between atoms: _55  and  _57
REMARK   23  A    between atoms: _57  and  _58
REMARK   24  A    between atoms: _57  and  _60
REMARK   25  A    between atoms: _60  and  _61
REMARK   26  A    between atoms: _66  and  _68
REMARK   27  A    between atoms: _68  and  _69
REMARK   28  A    between atoms: _68  and  _71
REMARK   29  A    between atoms: _71  and  _72
REMARK   30  A    between atoms: _72  and  _73
REMARK   31  A    between atoms: _73  and  _74
REMARK   32  A    between atoms: _74  and  _75
REMARK   33  A    between atoms: _79  and  _81
REMARK   34  A    between atoms: _81  and  _82
REMARK   35  A    between atoms: _81  and  _84
REMARK   36  A    between atoms: _84  and  _85
REMARK   37  A    between atoms: _85  and  _86
REMARK   38  A    between atoms: _86  and  _87
REMARK   39  A    between atoms: _96  and  _98
REMARK   40  A    between atoms: _98  and  _99
REMARK   41  A    between atoms: _98  and  _101
REMARK   42  A    between atoms: _101  and  _102
REMARK   43  A    between atoms: _107  and  _109
REMARK   44  A    between atoms: _109  and  _110
REMARK   45  A    between atoms: _109  and  _112
REMARK   46  A    between atoms: _112  and  _113
REMARK   47  A    between atoms: _116  and  _118
REMARK   48  A    between atoms: _118  and  _119
REMARK   49  A    between atoms: _118  and  _121
REMARK   50  A    between atoms: _121  and  _122
REMARK   51  A    between atoms: _132  and  _134
REMARK   52  A    between atoms: _134  and  _135
REMARK   53  A    between atoms: _134  and  _137
REMARK   54  A    between atoms: _137  and  _138
REMARK   55  A    between atoms: _140  and  _142
REMARK   56  A    between atoms: _142  and  _143
REMARK   57  A    between atoms: _142  and  _145
REMARK   58  A    between atoms: _145  and  _146
REMARK   59  A    between atoms: _146  and  _147
REMARK   60  A    between atoms: _152  and  _154
REMARK   61  A    between atoms: _154  and  _155
REMARK   62  A    between atoms: _154  and  _157
REMARK   63  A    between atoms: _157  and  _158
REMARK   64  A    between atoms: _161  and  _163
REMARK   65  A    between atoms: _163  and  _164
REMARK   66  A    between atoms: _163  and  _166
REMARK   67  A    between atoms: _166  and  _167
REMARK   68  A    between atoms: _172  and  _174
REMARK   69  A    between atoms: _174  and  _175
REMARK   70  A    between atoms: _174  and  _177
REMARK   71  A    between atoms: _177  and  _178
REMARK   72  A    between atoms: _178  and  _179
REMARK   73  A    between atoms: _182  and  _184
REMARK   74  A    between atoms: _184  and  _185
REMARK   75  A    between atoms: _184  and  _187
REMARK   76  A    between atoms: _187  and  _188
REMARK   77  A    between atoms: _193  and  _195
REMARK   78  A    between atoms: _195  and  _196
REMARK   79  A    between atoms: _195  and  _198
REMARK   80  A    between atoms: _198  and  _199
REMARK   81  A    between atoms: _202  and  _204
REMARK   82  A    between atoms: _204  and  _205
REMARK   83  A    between atoms: _204  and  _207
REMARK   84  A    between atoms: _207  and  _208
REMARK   85  A    between atoms: _213  and  _214
REMARK   86  A    between atoms: _216  and  _218
REMARK   87  A    between atoms: _218  and  _219
REMARK   88  A    between atoms: _218  and  _221
REMARK   89  A    between atoms: _221  and  _222
REMARK   90  A    between atoms: _222  and  _223
REMARK   91  A    between atoms: _228  and  _230
REMARK   92  A    between atoms: _230  and  _231
REMARK   93  A    between atoms: _230  and  _233
REMARK   94  A    between atoms: _233  and  _234
REMARK   95  A    between atoms: _239  and  _241
REMARK   96  A    between atoms: _241  and  _242
REMARK   97  A    between atoms: _241  and  _244
REMARK   98  A    between atoms: _244  and  _245
REMARK   99  A    between atoms: _248  and  _250
REMARK  100  A    between atoms: _250  and  _251
REMARK  101  A    between atoms: _250  and  _253
REMARK  102  A    between atoms: _253  and  _254
REMARK  103  A    between atoms: _254  and  _255
REMARK  104  A    between atoms: _258  and  _260
REMARK  105  A    between atoms: _260  and  _261
REMARK  106  A    between atoms: _260  and  _263
REMARK  107  A    between atoms: _263  and  _264
REMARK  108  A    between atoms: _267  and  _269
REMARK  109  A    between atoms: _269  and  _270
REMARK  110  A    between atoms: _269  and  _272
REMARK  111  A    between atoms: _272  and  _273
REMARK  112  A    between atoms: _283  and  _285
REMARK  113  A    between atoms: _285  and  _286
REMARK  114  A    between atoms: _288  and  _290
REMARK  115  A    between atoms: _290  and  _291
REMARK  116  A    between atoms: _290  and  _293
REMARK  117  A    between atoms: _293  and  _294
REMARK  118  A    between atoms: _297  and  _299
REMARK  119  A    between atoms: _299  and  _300
REMARK  120  A    between atoms: _299  and  _302
REMARK  121  A    between atoms: _302  and  _303
REMARK  122  A    between atoms: _305  and  _307
REMARK  123  A    between atoms: _307  and  _308
REMARK  124  A    between atoms: _307  and  _310
REMARK  125  A    between atoms: _310  and  _311
REMARK  126  A    between atoms: _321  and  _323
REMARK  127  A    between atoms: _323  and  _324
REMARK  128  A    between atoms: _323  and  _326
REMARK  129  A    between atoms: _326  and  _327
REMARK  130  A    between atoms: _327  and  _328
REMARK  131  A    between atoms: _328  and  _329
REMARK                            x       y       z     vdW  Elec       q    Type
REMARK                         _______ _______ _______ _____ _____    ______ ____
ROOT
ATOM      1  O   HOH     1      15.746  15.083  18.369  0.00  0.00    +0.000 OA
ENDROOT
TORSDOF 0
REMARK  Name = ../refined-set-2016/1v0k/1v0k_pocket.pdb
REMARK  131 active torsions:
REMARK  status: ('A' for Active; 'I' for Inactive)
REMARK    1  A    between atoms: _1  and  _3
REMARK    2  A    between atoms: _3  and  _4
REMARK    3  A    between atoms: _7  and  _9
REMARK    4  A    between atoms: _9  and  _10
REMARK    5  A    between atoms: _13  and  _15
REMARK    6  A    between atoms: _15  and  _16
REMARK    7  A    between atoms: _15  and  _18
REMARK    8  A    between atoms: _18  and  _19
REMARK    9  A    between atoms: _19  and  _20
REMARK   10  A    between atoms: _20  and  _21
REMARK   11  A    between atoms: _30  and  _32
REMARK   12  A    between atoms: _32  and  _33
REMARK   13  A    between atoms: _32  and  _35
REMARK   14  A    between atoms: _35  and  _36
REMARK   15  A    between atoms: _39  and  _41
REMARK   16  A    between atoms: _41  and  _42
REMARK   17  A    between atoms: _45  and  _47
REMARK   18  A    between atoms: _47  and  _48
REMARK   19  A    between atoms: _47  and  _50
REMARK   20  A    between atoms: _50  and  _51
REMARK   21  A    between atoms: _51  and  _52
REMARK   22  A    between atoms: _55  and  _57
REMARK   23  A    between atoms: _57  and  _58
REMARK   24  A    between atoms: _57  and  _60
REMARK   25  A    between atoms: _60  and  _61
REMARK   26  A    between atoms: _66  and  _68
REMARK   27  A    between atoms: _68  and  _69
REMARK   28  A    between atoms: _68  and  _71
REMARK   29  A    between atoms: _71  and  _72
REMARK   30  A    between atoms: _72  and  _73
REMARK   31  A    between atoms: _73  and  _74
REMARK   32  A    between atoms: _74  and  _75
REMARK   33  A    between atoms: _79  and  _81
REMARK   34  A    between atoms: _81  and  _82
REMARK   35  A    between atoms: _81  and  _84
REMARK   36  A    between atoms: _84  and  _85
REMARK   37  A    between atoms: _85  and  _86
REMARK   38  A    between atoms: _86  and  _87
REMARK   39  A    between atoms: _96  and  _98
REMARK   40  A    between atoms: _98  and  _99
REMARK   41  A    between atoms: _98  and  _101
REMARK   42  A    between atoms: _101  and  _102
REMARK   43  A    between atoms: _107  and  _109
REMARK   44  A    between atoms: _109  and  _110
REMARK   45  A    between atoms: _109  and  _112
REMARK   46  A    between atoms: _112  and  _113
REMARK   47  A    between atoms: _116  and  _118
REMARK   48  A    between atoms: _118  and  _119
REMARK   49  A    between atoms: _118  and  _121
REMARK   50  A    between atoms: _121  and  _122
REMARK   51  A    between atoms: _132  and  _134
REMARK   52  A    between atoms: _134  and  _135
REMARK   53  A    between atoms: _134  and  _137
REMARK   54  A    between atoms: _137  and  _138
REMARK   55  A    between atoms: _140  and  _142
REMARK   56  A    between atoms: _142  and  _143
REMARK   57  A    between atoms: _142  and  _145
REMARK   58  A    between atoms: _145  and  _146
REMARK   59  A    between atoms: _146  and  _147
REMARK   60  A    between atoms: _152  and  _154
REMARK   61  A    between atoms: _154  and  _155
REMARK   62  A    between atoms: _154  and  _157
REMARK   63  A    between atoms: _157  and  _158
REMARK   64  A    between atoms: _161  and  _163
REMARK   65  A    between atoms: _163  and  _164
REMARK   66  A    between atoms: _163  and  _166
REMARK   67  A    between atoms: _166  and  _167
REMARK   68  A    between atoms: _172  and  _174
REMARK   69  A    between atoms: _174  and  _175
REMARK   70  A    between atoms: _174  and  _177
REMARK   71  A    between atoms: _177  and  _178
REMARK   72  A    between atoms: _178  and  _179
REMARK   73  A    between atoms: _182  and  _184
REMARK   74  A    between atoms: _184  and  _185
REMARK   75  A    between atoms: _184  and  _187
REMARK   76  A    between atoms: _187  and  _188
REMARK   77  A    between atoms: _193  and  _195
REMARK   78  A    between atoms: _195  and  _196
REMARK   79  A    between atoms: _195  and  _198
REMARK   80  A    between atoms: _198  and  _199
REMARK   81  A    between atoms: _202  and  _204
REMARK   82  A    between atoms: _204  and  _205
REMARK   83  A    between atoms: _204  and  _207
REMARK   84  A    between atoms: _207  and  _208
REMARK   85  A    between atoms: _213  and  _214
REMARK   86  A    between atoms: _216  and  _218
REMARK   87  A    between atoms: _218  and  _219
REMARK   88  A    between atoms: _218  and  _221
REMARK   89  A    between atoms: _221  and  _222
REMARK   90  A    between atoms: _222  and  _223
REMARK   91  A    between atoms: _228  and  _230
REMARK   92  A    between atoms: _230  and  _231
REMARK   93  A    between atoms: _230  and  _233
REMARK   94  A    between atoms: _233  and  _234
REMARK   95  A    between atoms: _239  and  _241
REMARK   96  A    between atoms: _241  and  _242
REMARK   97  A    between atoms: _241  and  _244
REMARK   98  A    between atoms: _244  and  _245
REMARK   99  A    between atoms: _248  and  _250
REMARK  100  A    between atoms: _250  and  _251
REMARK  101  A    between atoms: _250  and  _253
REMARK  102  A    between atoms: _253  and  _254
REMARK  103  A    between atoms: _254  and  _255
REMARK  104  A    between atoms: _258  and  _260
REMARK  105  A    between atoms: _260  and  _261
REMARK  106  A    between atoms: _260  and  _263
REMARK  107  A    between atoms: _263  and  _264
REMARK  108  A    between atoms: _267  and  _269
REMARK  109  A    between atoms: _269  and  _270
REMARK  110  A    between atoms: _269  and  _272
REMARK  111  A    between atoms: _272  and  _273
REMARK  112  A    between atoms: _283  and  _285
REMARK  113  A    between atoms: _285  and  _286
REMARK  114  A    between atoms: _288  and  _290
REMARK  115  A    between atoms: _290  and  _291
REMARK  116  A    between atoms: _290  and  _293
REMARK  117  A    between atoms: _293  and  _294
REMARK  118  A    between atoms: _297  and  _299
REMARK  119  A    between atoms: _299  and  _300
REMARK  120  A    between atoms: _299  and  _302
REMARK  121  A    between atoms: _302  and  _303
REMARK  122  A    between atoms: _305  and  _307
REMARK  123  A    between atoms: _307  and  _308
REMARK  124  A    between atoms: _307  and  _310
REMARK  125  A    between atoms: _310  and  _311
REMARK  126  A    between atoms: _321  and  _323
REMARK  127  A    between atoms: _323  and  _324
REMARK  128  A    between atoms: _323  and  _326
REMARK  129  A    between atoms: _326  and  _327
REMARK  130  A    between atoms: _327  and  _328
REMARK  131  A    between atoms: _328  and  _329
REMARK                            x       y       z     vdW  Elec       q    Type
REMARK                         _______ _______ _______ _____ _____    ______ ____
ROOT
ATOM      1  O   UNL     1       6.942  23.156  15.047  0.00  0.00    +0.000 OA
ATOM      2  O   UNL     1       7.211  21.602  15.058  0.00  0.00    +0.000 OA
ENDROOT
TORSDOF 0
REMARK  Name = ../refined-set-2016/1v0k/1v0k_pocket.pdb
REMARK  131 active torsions:
REMARK  status: ('A' for Active; 'I' for Inactive)
REMARK    1  A    between atoms: _1  and  _3
REMARK    2  A    between atoms: _3  and  _4
REMARK    3  A    between atoms: _7  and  _9
REMARK    4  A    between atoms: _9  and  _10
REMARK    5  A    between atoms: _13  and  _15
REMARK    6  A    between atoms: _15  and  _16
REMARK    7  A    between atoms: _15  and  _18
REMARK    8  A    between atoms: _18  and  _19
REMARK    9  A    between atoms: _19  and  _20
REMARK   10  A    between atoms: _20  and  _21
REMARK   11  A    between atoms: _30  and  _32
REMARK   12  A    between atoms: _32  and  _33
REMARK   13  A    between atoms: _32  and  _35
REMARK   14  A    between atoms: _35  and  _36
REMARK   15  A    between atoms: _39  and  _41
REMARK   16  A    between atoms: _41  and  _42
REMARK   17  A    between atoms: _45  and  _47
REMARK   18  A    between atoms: _47  and  _48
REMARK   19  A    between atoms: _47  and  _50
REMARK   20  A    between atoms: _50  and  _51
REMARK   21  A    between atoms: _51  and  _52
REMARK   22  A    between atoms: _55  and  _57
REMARK   23  A    between atoms: _57  and  _58
REMARK   24  A    between atoms: _57  and  _60
REMARK   25  A    between atoms: _60  and  _61
REMARK   26  A    between atoms: _66  and  _68
REMARK   27  A    between atoms: _68  and  _69
REMARK   28  A    between atoms: _68  and  _71
REMARK   29  A    between atoms: _71  and  _72
REMARK   30  A    between atoms: _72  and  _73
REMARK   31  A    between atoms: _73  and  _74
REMARK   32  A    between atoms: _74  and  _75
REMARK   33  A    between atoms: _79  and  _81
REMARK   34  A    between atoms: _81  and  _82
REMARK   35  A    between atoms: _81  and  _84
REMARK   36  A    between atoms: _84  and  _85
REMARK   37  A    between atoms: _85  and  _86
REMARK   38  A    between atoms: _86  and  _87
REMARK   39  A    between atoms: _96  and  _98
REMARK   40  A    between atoms: _98  and  _99
REMARK   41  A    between atoms: _98  and  _101
REMARK   42  A    between atoms: _101  and  _102
REMARK   43  A    between atoms: _107  and  _109
REMARK   44  A    between atoms: _109  and  _110
REMARK   45  A    between atoms: _109  and  _112
REMARK   46  A    between atoms: _112  and  _113
REMARK   47  A    between atoms: _116  and  _118
REMARK   48  A    between atoms: _118  and  _119
REMARK   49  A    between atoms: _118  and  _121
REMARK   50  A    between atoms: _121  and  _122
REMARK   51  A    between atoms: _132  and  _134
REMARK   52  A    between atoms: _134  and  _135
REMARK   53  A    between atoms: _134  and  _137
REMARK   54  A    between atoms: _137  and  _138
REMARK   55  A    between atoms: _140  and  _142
REMARK   56  A    between atoms: _142  and  _143
REMARK   57  A    between atoms: _142  and  _145
REMARK   58  A    between atoms: _145  and  _146
REMARK   59  A    between atoms: _146  and  _147
REMARK   60  A    between atoms: _152  and  _154
REMARK   61  A    between atoms: _154  and  _155
REMARK   62  A    between atoms: _154  and  _157
REMARK   63  A    between atoms: _157  and  _158
REMARK   64  A    between atoms: _161  and  _163
REMARK   65  A    between atoms: _163  and  _164
REMARK   66  A    between atoms: _163  and  _166
REMARK   67  A    between atoms: _166  and  _167
REMARK   68  A    between atoms: _172  and  _174
REMARK   69  A    between atoms: _174  and  _175
REMARK   70  A    between atoms: _174  and  _177
REMARK   71  A    between atoms: _177  and  _178
REMARK   72  A    between atoms: _178  and  _179
REMARK   73  A    between atoms: _182  and  _184
REMARK   74  A    between atoms: _184  and  _185
REMARK   75  A    between atoms: _184  and  _187
REMARK   76  A    between atoms: _187  and  _188
REMARK   77  A    between atoms: _193  and  _195
REMARK   78  A    between atoms: _195  and  _196
REMARK   79  A    between atoms: _195  and  _198
REMARK   80  A    between atoms: _198  and  _199
REMARK   81  A    between atoms: _202  and  _204
REMARK   82  A    between atoms: _204  and  _205
REMARK   83  A    between atoms: _204  and  _207
REMARK   84  A    between atoms: _207  and  _208
REMARK   85  A    between atoms: _213  and  _214
REMARK   86  A    between atoms: _216  and  _218
REMARK   87  A    between atoms: _218  and  _219
REMARK   88  A    between atoms: _218  and  _221
REMARK   89  A    between atoms: _221  and  _222
REMARK   90  A    between atoms: _222  and  _223
REMARK   91  A    between atoms: _228  and  _230
REMARK   92  A    between atoms: _230  and  _231
REMARK   93  A    between atoms: _230  and  _233
REMARK   94  A    between atoms: _233  and  _234
REMARK   95  A    between atoms: _239  and  _241
REMARK   96  A    between atoms: _241  and  _242
REMARK   97  A    between atoms: _241  and  _244
REMARK   98  A    between atoms: _244  and  _245
REMARK   99  A    between atoms: _248  and  _250
REMARK  100  A    between atoms: _250  and  _251
REMARK  101  A    between atoms: _250  and  _253
REMARK  102  A    between atoms: _253  and  _254
REMARK  103  A    between atoms: _254  and  _255
REMARK  104  A    between atoms: _258  and  _260
REMARK  105  A    between atoms: _260  and  _261
REMARK  106  A    between atoms: _260  and  _263
REMARK  107  A    between atoms: _263  and  _264
REMARK  108  A    between atoms: _267  and  _269
REMARK  109  A    between atoms: _269  and  _270
REMARK  110  A    between atoms: _269  and  _272
REMARK  111  A    between atoms: _272  and  _273
REMARK  112  A    between atoms: _283  and  _285
REMARK  113  A    between atoms: _285  and  _286
REMARK  114  A    between atoms: _288  and  _290
REMARK  115  A    between atoms: _290  and  _291
REMARK  116  A    between atoms: _290  and  _293
REMARK  117  A    between atoms: _293  and  _294
REMARK  118  A    between atoms: _297  and  _299
REMARK  119  A    between atoms: _299  and  _300
REMARK  120  A    between atoms: _299  and  _302
REMARK  121  A    between atoms: _302  and  _303
REMARK  122  A    between atoms: _305  and  _307
REMARK  123  A    between atoms: _307  and  _308
REMARK  124  A    between atoms: _307  and  _310
REMARK  125  A    between atoms: _310  and  _311
REMARK  126  A    between atoms: _321  and  _323
REMARK  127  A    between atoms: _323  and  _324
REMARK  128  A    between atoms: _323  and  _326
REMARK  129  A    between atoms: _326  and  _327
REMARK  130  A    between atoms: _327  and  _328
REMARK  131  A    between atoms: _328  and  _329
REMARK                            x       y       z     vdW  Elec       q    Type
REMARK                         _______ _______ _______ _____ _____    ______ ____
ROOT
ATOM      1  O   HOH     1       8.503  20.553  13.265  0.00  0.00    +0.000 OA
ENDROOT
TORSDOF 0
REMARK  Name = ../refined-set-2016/1v0k/1v0k_pocket.pdb
REMARK  131 active torsions:
REMARK  status: ('A' for Active; 'I' for Inactive)
REMARK    1  A    between atoms: _1  and  _3
REMARK    2  A    between atoms: _3  and  _4
REMARK    3  A    between atoms: _7  and  _9
REMARK    4  A    between atoms: _9  and  _10
REMARK    5  A    between atoms: _13  and  _15
REMARK    6  A    between atoms: _15  and  _16
REMARK    7  A    between atoms: _15  and  _18
REMARK    8  A    between atoms: _18  and  _19
REMARK    9  A    between atoms: _19  and  _20
REMARK   10  A    between atoms: _20  and  _21
REMARK   11  A    between atoms: _30  and  _32
REMARK   12  A    between atoms: _32  and  _33
REMARK   13  A    between atoms: _32  and  _35
REMARK   14  A    between atoms: _35  and  _36
REMARK   15  A    between atoms: _39  and  _41
REMARK   16  A    between atoms: _41  and  _42
REMARK   17  A    between atoms: _45  and  _47
REMARK   18  A    between atoms: _47  and  _48
REMARK   19  A    between atoms: _47  and  _50
REMARK   20  A    between atoms: _50  and  _51
REMARK   21  A    between atoms: _51  and  _52
REMARK   22  A    between atoms: _55  and  _57
REMARK   23  A    between atoms: _57  and  _58
REMARK   24  A    between atoms: _57  and  _60
REMARK   25  A    between atoms: _60  and  _61
REMARK   26  A    between atoms: _66  and  _68
REMARK   27  A    between atoms: _68  and  _69
REMARK   28  A    between atoms: _68  and  _71
REMARK   29  A    between atoms: _71  and  _72
REMARK   30  A    between atoms: _72  and  _73
REMARK   31  A    between atoms: _73  and  _74
REMARK   32  A    between atoms: _74  and  _75
REMARK   33  A    between atoms: _79  and  _81
REMARK   34  A    between atoms: _81  and  _82
REMARK   35  A    between atoms: _81  and  _84
REMARK   36  A    between atoms: _84  and  _85
REMARK   37  A    between atoms: _85  and  _86
REMARK   38  A    between atoms: _86  and  _87
REMARK   39  A    between atoms: _96  and  _98
REMARK   40  A    between atoms: _98  and  _99
REMARK   41  A    between atoms: _98  and  _101
REMARK   42  A    between atoms: _101  and  _102
REMARK   43  A    between atoms: _107  and  _109
REMARK   44  A    between atoms: _109  and  _110
REMARK   45  A    between atoms: _109  and  _112
REMARK   46  A    between atoms: _112  and  _113
REMARK   47  A    between atoms: _116  and  _118
REMARK   48  A    between atoms: _118  and  _119
REMARK   49  A    between atoms: _118  and  _121
REMARK   50  A    between atoms: _121  and  _122
REMARK   51  A    between atoms: _132  and  _134
REMARK   52  A    between atoms: _134  and  _135
REMARK   53  A    between atoms: _134  and  _137
REMARK   54  A    between atoms: _137  and  _138
REMARK   55  A    between atoms: _140  and  _142
REMARK   56  A    between atoms: _142  and  _143
REMARK   57  A    between atoms: _142  and  _145
REMARK   58  A    between atoms: _145  and  _146
REMARK   59  A    between atoms: _146  and  _147
REMARK   60  A    between atoms: _152  and  _154
REMARK   61  A    between atoms: _154  and  _155
REMARK   62  A    between atoms: _154  and  _157
REMARK   63  A    between atoms: _157  and  _158
REMARK   64  A    between atoms: _161  and  _163
REMARK   65  A    between atoms: _163  and  _164
REMARK   66  A    between atoms: _163  and  _166
REMARK   67  A    between atoms: _166  and  _167
REMARK   68  A    between atoms: _172  and  _174
REMARK   69  A    between atoms: _174  and  _175
REMARK   70  A    between atoms: _174  and  _177
REMARK   71  A    between atoms: _177  and  _178
REMARK   72  A    between atoms: _178  and  _179
REMARK   73  A    between atoms: _182  and  _184
REMARK   74  A    between atoms: _184  and  _185
REMARK   75  A    between atoms: _184  and  _187
REMARK   76  A    between atoms: _187  and  _188
REMARK   77  A    between atoms: _193  and  _195
REMARK   78  A    between atoms: _195  and  _196
REMARK   79  A    between atoms: _195  and  _198
REMARK   80  A    between atoms: _198  and  _199
REMARK   81  A    between atoms: _202  and  _204
REMARK   82  A    between atoms: _204  and  _205
REMARK   83  A    between atoms: _204  and  _207
REMARK   84  A    between atoms: _207  and  _208
REMARK   85  A    between atoms: _213  and  _214
REMARK   86  A    between atoms: _216  and  _218
REMARK   87  A    between atoms: _218  and  _219
REMARK   88  A    between atoms: _218  and  _221
REMARK   89  A    between atoms: _221  and  _222
REMARK   90  A    between atoms: _222  and  _223
REMARK   91  A    between atoms: _228  and  _230
REMARK   92  A    between atoms: _230  and  _231
REMARK   93  A    between atoms: _230  and  _233
REMARK   94  A    between atoms: _233  and  _234
REMARK   95  A    between atoms: _239  and  _241
REMARK   96  A    between atoms: _241  and  _242
REMARK   97  A    between atoms: _241  and  _244
REMARK   98  A    between atoms: _244  and  _245
REMARK   99  A    between atoms: _248  and  _250
REMARK  100  A    between atoms: _250  and  _251
REMARK  101  A    between atoms: _250  and  _253
REMARK  102  A    between atoms: _253  and  _254
REMARK  103  A    between atoms: _254  and  _255
REMARK  104  A    between atoms: _258  and  _260
REMARK  105  A    between atoms: _260  and  _261
REMARK  106  A    between atoms: _260  and  _263
REMARK  107  A    between atoms: _263  and  _264
REMARK  108  A    between atoms: _267  and  _269
REMARK  109  A    between atoms: _269  and  _270
REMARK  110  A    between atoms: _269  and  _272
REMARK  111  A    between atoms: _272  and  _273
REMARK  112  A    between atoms: _283  and  _285
REMARK  113  A    between atoms: _285  and  _286
REMARK  114  A    between atoms: _288  and  _290
REMARK  115  A    between atoms: _290  and  _291
REMARK  116  A    between atoms: _290  and  _293
REMARK  117  A    between atoms: _293  and  _294
REMARK  118  A    between atoms: _297  and  _299
REMARK  119  A    between atoms: _299  and  _300
REMARK  120  A    between atoms: _299  and  _302
REMARK  121  A    between atoms: _302  and  _303
REMARK  122  A    between atoms: _305  and  _307
REMARK  123  A    between atoms: _307  and  _308
REMARK  124  A    between atoms: _307  and  _310
REMARK  125  A    between atoms: _310  and  _311
REMARK  126  A    between atoms: _321  and  _323
REMARK  127  A    between atoms: _323  and  _324
REMARK  128  A    between atoms: _323  and  _326
REMARK  129  A    between atoms: _326  and  _327
REMARK  130  A    between atoms: _327  and  _328
REMARK  131  A    between atoms: _328  and  _329
REMARK                            x       y       z     vdW  Elec       q    Type
REMARK                         _______ _______ _______ _____ _____    ______ ____
ROOT
ATOM      1  O   HOH     1       6.995  23.223  12.260  0.00  0.00    +0.000 OA
ENDROOT
TORSDOF 0
REMARK  Name = ../refined-set-2016/1v0k/1v0k_pocket.pdb
REMARK  131 active torsions:
REMARK  status: ('A' for Active; 'I' for Inactive)
REMARK    1  A    between atoms: _1  and  _3
REMARK    2  A    between atoms: _3  and  _4
REMARK    3  A    between atoms: _7  and  _9
REMARK    4  A    between atoms: _9  and  _10
REMARK    5  A    between atoms: _13  and  _15
REMARK    6  A    between atoms: _15  and  _16
REMARK    7  A    between atoms: _15  and  _18
REMARK    8  A    between atoms: _18  and  _19
REMARK    9  A    between atoms: _19  and  _20
REMARK   10  A    between atoms: _20  and  _21
REMARK   11  A    between atoms: _30  and  _32
REMARK   12  A    between atoms: _32  and  _33
REMARK   13  A    between atoms: _32  and  _35
REMARK   14  A    between atoms: _35  and  _36
REMARK   15  A    between atoms: _39  and  _41
REMARK   16  A    between atoms: _41  and  _42
REMARK   17  A    between atoms: _45  and  _47
REMARK   18  A    between atoms: _47  and  _48
REMARK   19  A    between atoms: _47  and  _50
REMARK   20  A    between atoms: _50  and  _51
REMARK   21  A    between atoms: _51  and  _52
REMARK   22  A    between atoms: _55  and  _57
REMARK   23  A    between atoms: _57  and  _58
REMARK   24  A    between atoms: _57  and  _60
REMARK   25  A    between atoms: _60  and  _61
REMARK   26  A    between atoms: _66  and  _68
REMARK   27  A    between atoms: _68  and  _69
REMARK   28  A    between atoms: _68  and  _71
REMARK   29  A    between atoms: _71  and  _72
REMARK   30  A    between atoms: _72  and  _73
REMARK   31  A    between atoms: _73  and  _74
REMARK   32  A    between atoms: _74  and  _75
REMARK   33  A    between atoms: _79  and  _81
REMARK   34  A    between atoms: _81  and  _82
REMARK   35  A    between atoms: _81  and  _84
REMARK   36  A    between atoms: _84  and  _85
REMARK   37  A    between atoms: _85  and  _86
REMARK   38  A    between atoms: _86  and  _87
REMARK   39  A    between atoms: _96  and  _98
REMARK   40  A    between atoms: _98  and  _99
REMARK   41  A    between atoms: _98  and  _101
REMARK   42  A    between atoms: _101  and  _102
REMARK   43  A    between atoms: _107  and  _109
REMARK   44  A    between atoms: _109  and  _110
REMARK   45  A    between atoms: _109  and  _112
REMARK   46  A    between atoms: _112  and  _113
REMARK   47  A    between atoms: _116  and  _118
REMARK   48  A    between atoms: _118  and  _119
REMARK   49  A    between atoms: _118  and  _121
REMARK   50  A    between atoms: _121  and  _122
REMARK   51  A    between atoms: _132  and  _134
REMARK   52  A    between atoms: _134  and  _135
REMARK   53  A    between atoms: _134  and  _137
REMARK   54  A    between atoms: _137  and  _138
REMARK   55  A    between atoms: _140  and  _142
REMARK   56  A    between atoms: _142  and  _143
REMARK   57  A    between atoms: _142  and  _145
REMARK   58  A    between atoms: _145  and  _146
REMARK   59  A    between atoms: _146  and  _147
REMARK   60  A    between atoms: _152  and  _154
REMARK   61  A    between atoms: _154  and  _155
REMARK   62  A    between atoms: _154  and  _157
REMARK   63  A    between atoms: _157  and  _158
REMARK   64  A    between atoms: _161  and  _163
REMARK   65  A    between atoms: _163  and  _164
REMARK   66  A    between atoms: _163  and  _166
REMARK   67  A    between atoms: _166  and  _167
REMARK   68  A    between atoms: _172  and  _174
REMARK   69  A    between atoms: _174  and  _175
REMARK   70  A    between atoms: _174  and  _177
REMARK   71  A    between atoms: _177  and  _178
REMARK   72  A    between atoms: _178  and  _179
REMARK   73  A    between atoms: _182  and  _184
REMARK   74  A    between atoms: _184  and  _185
REMARK   75  A    between atoms: _184  and  _187
REMARK   76  A    between atoms: _187  and  _188
REMARK   77  A    between atoms: _193  and  _195
REMARK   78  A    between atoms: _195  and  _196
REMARK   79  A    between atoms: _195  and  _198
REMARK   80  A    between atoms: _198  and  _199
REMARK   81  A    between atoms: _202  and  _204
REMARK   82  A    between atoms: _204  and  _205
REMARK   83  A    between atoms: _204  and  _207
REMARK   84  A    between atoms: _207  and  _208
REMARK   85  A    between atoms: _213  and  _214
REMARK   86  A    between atoms: _216  and  _218
REMARK   87  A    between atoms: _218  and  _219
REMARK   88  A    between atoms: _218  and  _221
REMARK   89  A    between atoms: _221  and  _222
REMARK   90  A    between atoms: _222  and  _223
REMARK   91  A    between atoms: _228  and  _230
REMARK   92  A    between atoms: _230  and  _231
REMARK   93  A    between atoms: _230  and  _233
REMARK   94  A    between atoms: _233  and  _234
REMARK   95  A    between atoms: _239  and  _241
REMARK   96  A    between atoms: _241  and  _242
REMARK   97  A    between atoms: _241  and  _244
REMARK   98  A    between atoms: _244  and  _245
REMARK   99  A    between atoms: _248  and  _250
REMARK  100  A    between atoms: _250  and  _251
REMARK  101  A    between atoms: _250  and  _253
REMARK  102  A    between atoms: _253  and  _254
REMARK  103  A    between atoms: _254  and  _255
REMARK  104  A    between atoms: _258  and  _260
REMARK  105  A    between atoms: _260  and  _261
REMARK  106  A    between atoms: _260  and  _263
REMARK  107  A    between atoms: _263  and  _264
REMARK  108  A    between atoms: _267  and  _269
REMARK  109  A    between atoms: _269  and  _270
REMARK  110  A    between atoms: _269  and  _272
REMARK  111  A    between atoms: _272  and  _273
REMARK  112  A    between atoms: _283  and  _285
REMARK  113  A    between atoms: _285  and  _286
REMARK  114  A    between atoms: _288  and  _290
REMARK  115  A    between atoms: _290  and  _291
REMARK  116  A    between atoms: _290  and  _293
REMARK  117  A    between atoms: _293  and  _294
REMARK  118  A    between atoms: _297  and  _299
REMARK  119  A    between atoms: _299  and  _300
REMARK  120  A    between atoms: _299  and  _302
REMARK  121  A    between atoms: _302  and  _303
REMARK  122  A    between atoms: _305  and  _307
REMARK  123  A    between atoms: _307  and  _308
REMARK  124  A    between atoms: _307  and  _310
REMARK  125  A    between atoms: _310  and  _311
REMARK  126  A    between atoms: _321  and  _323
REMARK  127  A    between atoms: _323  and  _324
REMARK  128  A    between atoms: _323  and  _326
REMARK  129  A    between atoms: _326  and  _327
REMARK  130  A    between atoms: _327  and  _328
REMARK  131  A    between atoms: _328  and  _329
REMARK                            x       y       z     vdW  Elec       q    Type
REMARK                         _______ _______ _______ _____ _____    ______ ____
ROOT
ATOM      1  O   HOH     1      10.338  18.898  12.212  0.00  0.00    +0.000 OA
ENDROOT
TORSDOF 0
REMARK  Name = ../refined-set-2016/1v0k/1v0k_pocket.pdb
REMARK  131 active torsions:
REMARK  status: ('A' for Active; 'I' for Inactive)
REMARK    1  A    between atoms: _1  and  _3
REMARK    2  A    between atoms: _3  and  _4
REMARK    3  A    between atoms: _7  and  _9
REMARK    4  A    between atoms: _9  and  _10
REMARK    5  A    between atoms: _13  and  _15
REMARK    6  A    between atoms: _15  and  _16
REMARK    7  A    between atoms: _15  and  _18
REMARK    8  A    between atoms: _18  and  _19
REMARK    9  A    between atoms: _19  and  _20
REMARK   10  A    between atoms: _20  and  _21
REMARK   11  A    between atoms: _30  and  _32
REMARK   12  A    between atoms: _32  and  _33
REMARK   13  A    between atoms: _32  and  _35
REMARK   14  A    between atoms: _35  and  _36
REMARK   15  A    between atoms: _39  and  _41
REMARK   16  A    between atoms: _41  and  _42
REMARK   17  A    between atoms: _45  and  _47
REMARK   18  A    between atoms: _47  and  _48
REMARK   19  A    between atoms: _47  and  _50
REMARK   20  A    between atoms: _50  and  _51
REMARK   21  A    between atoms: _51  and  _52
REMARK   22  A    between atoms: _55  and  _57
REMARK   23  A    between atoms: _57  and  _58
REMARK   24  A    between atoms: _57  and  _60
REMARK   25  A    between atoms: _60  and  _61
REMARK   26  A    between atoms: _66  and  _68
REMARK   27  A    between atoms: _68  and  _69
REMARK   28  A    between atoms: _68  and  _71
REMARK   29  A    between atoms: _71  and  _72
REMARK   30  A    between atoms: _72  and  _73
REMARK   31  A    between atoms: _73  and  _74
REMARK   32  A    between atoms: _74  and  _75
REMARK   33  A    between atoms: _79  and  _81
REMARK   34  A    between atoms: _81  and  _82
REMARK   35  A    between atoms: _81  and  _84
REMARK   36  A    between atoms: _84  and  _85
REMARK   37  A    between atoms: _85  and  _86
REMARK   38  A    between atoms: _86  and  _87
REMARK   39  A    between atoms: _96  and  _98
REMARK   40  A    between atoms: _98  and  _99
REMARK   41  A    between atoms: _98  and  _101
REMARK   42  A    between atoms: _101  and  _102
REMARK   43  A    between atoms: _107  and  _109
REMARK   44  A    between atoms: _109  and  _110
REMARK   45  A    between atoms: _109  and  _112
REMARK   46  A    between atoms: _112  and  _113
REMARK   47  A    between atoms: _116  and  _118
REMARK   48  A    between atoms: _118  and  _119
REMARK   49  A    between atoms: _118  and  _121
REMARK   50  A    between atoms: _121  and  _122
REMARK   51  A    between atoms: _132  and  _134
REMARK   52  A    between atoms: _134  and  _135
REMARK   53  A    between atoms: _134  and  _137
REMARK   54  A    between atoms: _137  and  _138
REMARK   55  A    between atoms: _140  and  _142
REMARK   56  A    between atoms: _142  and  _143
REMARK   57  A    between atoms: _142  and  _145
REMARK   58  A    between atoms: _145  and  _146
REMARK   59  A    between atoms: _146  and  _147
REMARK   60  A    between atoms: _152  and  _154
REMARK   61  A    between atoms: _154  and  _155
REMARK   62  A    between atoms: _154  and  _157
REMARK   63  A    between atoms: _157  and  _158
REMARK   64  A    between atoms: _161  and  _163
REMARK   65  A    between atoms: _163  and  _164
REMARK   66  A    between atoms: _163  and  _166
REMARK   67  A    between atoms: _166  and  _167
REMARK   68  A    between atoms: _172  and  _174
REMARK   69  A    between atoms: _174  and  _175
REMARK   70  A    between atoms: _174  and  _177
REMARK   71  A    between atoms: _177  and  _178
REMARK   72  A    between atoms: _178  and  _179
REMARK   73  A    between atoms: _182  and  _184
REMARK   74  A    between atoms: _184  and  _185
REMARK   75  A    between atoms: _184  and  _187
REMARK   76  A    between atoms: _187  and  _188
REMARK   77  A    between atoms: _193  and  _195
REMARK   78  A    between atoms: _195  and  _196
REMARK   79  A    between atoms: _195  and  _198
REMARK   80  A    between atoms: _198  and  _199
REMARK   81  A    between atoms: _202  and  _204
REMARK   82  A    between atoms: _204  and  _205
REMARK   83  A    between atoms: _204  and  _207
REMARK   84  A    between atoms: _207  and  _208
REMARK   85  A    between atoms: _213  and  _214
REMARK   86  A    between atoms: _216  and  _218
REMARK   87  A    between atoms: _218  and  _219
REMARK   88  A    between atoms: _218  and  _221
REMARK   89  A    between atoms: _221  and  _222
REMARK   90  A    between atoms: _222  and  _223
REMARK   91  A    between atoms: _228  and  _230
REMARK   92  A    between atoms: _230  and  _231
REMARK   93  A    between atoms: _230  and  _233
REMARK   94  A    between atoms: _233  and  _234
REMARK   95  A    between atoms: _239  and  _241
REMARK   96  A    between atoms: _241  and  _242
REMARK   97  A    between atoms: _241  and  _244
REMARK   98  A    between atoms: _244  and  _245
REMARK   99  A    between atoms: _248  and  _250
REMARK  100  A    between atoms: _250  and  _251
REMARK  101  A    between atoms: _250  and  _253
REMARK  102  A    between atoms: _253  and  _254
REMARK  103  A    between atoms: _254  and  _255
REMARK  104  A    between atoms: _258  and  _260
REMARK  105  A    between atoms: _260  and  _261
REMARK  106  A    between atoms: _260  and  _263
REMARK  107  A    between atoms: _263  and  _264
REMARK  108  A    between atoms: _267  and  _269
REMARK  109  A    between atoms: _269  and  _270
REMARK  110  A    between atoms: _269  and  _272
REMARK  111  A    between atoms: _272  and  _273
REMARK  112  A    between atoms: _283  and  _285
REMARK  113  A    between atoms: _285  and  _286
REMARK  114  A    between atoms: _288  and  _290
REMARK  115  A    between atoms: _290  and  _291
REMARK  116  A    between atoms: _290  and  _293
REMARK  117  A    between atoms: _293  and  _294
REMARK  118  A    between atoms: _297  and  _299
REMARK  119  A    between atoms: _299  and  _300
REMARK  120  A    between atoms: _299  and  _302
REMARK  121  A    between atoms: _302  and  _303
REMARK  122  A    between atoms: _305  and  _307
REMARK  123  A    between atoms: _307  and  _308
REMARK  124  A    between atoms: _307  and  _310
REMARK  125  A    between atoms: _310  and  _311
REMARK  126  A    between atoms: _321  and  _323
REMARK  127  A    between atoms: _323  and  _324
REMARK  128  A    between atoms: _323  and  _326
REMARK  129  A    between atoms: _326  and  _327
REMARK  130  A    between atoms: _327  and  _328
REMARK  131  A    between atoms: _328  and  _329
REMARK                            x       y       z     vdW  Elec       q    Type
REMARK                         _______ _______ _______ _____ _____    ______ ____
ROOT
ATOM      1  O   HOH     1      10.412   9.358   9.964  0.00  0.00    +0.000 OA
ENDROOT
TORSDOF 0
REMARK  Name = ../refined-set-2016/1v0k/1v0k_pocket.pdb
REMARK  131 active torsions:
REMARK  status: ('A' for Active; 'I' for Inactive)
REMARK    1  A    between atoms: _1  and  _3
REMARK    2  A    between atoms: _3  and  _4
REMARK    3  A    between atoms: _7  and  _9
REMARK    4  A    between atoms: _9  and  _10
REMARK    5  A    between atoms: _13  and  _15
REMARK    6  A    between atoms: _15  and  _16
REMARK    7  A    between atoms: _15  and  _18
REMARK    8  A    between atoms: _18  and  _19
REMARK    9  A    between atoms: _19  and  _20
REMARK   10  A    between atoms: _20  and  _21
REMARK   11  A    between atoms: _30  and  _32
REMARK   12  A    between atoms: _32  and  _33
REMARK   13  A    between atoms: _32  and  _35
REMARK   14  A    between atoms: _35  and  _36
REMARK   15  A    between atoms: _39  and  _41
REMARK   16  A    between atoms: _41  and  _42
REMARK   17  A    between atoms: _45  and  _47
REMARK   18  A    between atoms: _47  and  _48
REMARK   19  A    between atoms: _47  and  _50
REMARK   20  A    between atoms: _50  and  _51
REMARK   21  A    between atoms: _51  and  _52
REMARK   22  A    between atoms: _55  and  _57
REMARK   23  A    between atoms: _57  and  _58
REMARK   24  A    between atoms: _57  and  _60
REMARK   25  A    between atoms: _60  and  _61
REMARK   26  A    between atoms: _66  and  _68
REMARK   27  A    between atoms: _68  and  _69
REMARK   28  A    between atoms: _68  and  _71
REMARK   29  A    between atoms: _71  and  _72
REMARK   30  A    between atoms: _72  and  _73
REMARK   31  A    between atoms: _73  and  _74
REMARK   32  A    between atoms: _74  and  _75
REMARK   33  A    between atoms: _79  and  _81
REMARK   34  A    between atoms: _81  and  _82
REMARK   35  A    between atoms: _81  and  _84
REMARK   36  A    between atoms: _84  and  _85
REMARK   37  A    between atoms: _85  and  _86
REMARK   38  A    between atoms: _86  and  _87
REMARK   39  A    between atoms: _96  and  _98
REMARK   40  A    between atoms: _98  and  _99
REMARK   41  A    between atoms: _98  and  _101
REMARK   42  A    between atoms: _101  and  _102
REMARK   43  A    between atoms: _107  and  _109
REMARK   44  A    between atoms: _109  and  _110
REMARK   45  A    between atoms: _109  and  _112
REMARK   46  A    between atoms: _112  and  _113
REMARK   47  A    between atoms: _116  and  _118
REMARK   48  A    between atoms: _118  and  _119
REMARK   49  A    between atoms: _118  and  _121
REMARK   50  A    between atoms: _121  and  _122
REMARK   51  A    between atoms: _132  and  _134
REMARK   52  A    between atoms: _134  and  _135
REMARK   53  A    between atoms: _134  and  _137
REMARK   54  A    between atoms: _137  and  _138
REMARK   55  A    between atoms: _140  and  _142
REMARK   56  A    between atoms: _142  and  _143
REMARK   57  A    between atoms: _142  and  _145
REMARK   58  A    between atoms: _145  and  _146
REMARK   59  A    between atoms: _146  and  _147
REMARK   60  A    between atoms: _152  and  _154
REMARK   61  A    between atoms: _154  and  _155
REMARK   62  A    between atoms: _154  and  _157
REMARK   63  A    between atoms: _157  and  _158
REMARK   64  A    between atoms: _161  and  _163
REMARK   65  A    between atoms: _163  and  _164
REMARK   66  A    between atoms: _163  and  _166
REMARK   67  A    between atoms: _166  and  _167
REMARK   68  A    between atoms: _172  and  _174
REMARK   69  A    between atoms: _174  and  _175
REMARK   70  A    between atoms: _174  and  _177
REMARK   71  A    between atoms: _177  and  _178
REMARK   72  A    between atoms: _178  and  _179
REMARK   73  A    between atoms: _182  and  _184
REMARK   74  A    between atoms: _184  and  _185
REMARK   75  A    between atoms: _184  and  _187
REMARK   76  A    between atoms: _187  and  _188
REMARK   77  A    between atoms: _193  and  _195
REMARK   78  A    between atoms: _195  and  _196
REMARK   79  A    between atoms: _195  and  _198
REMARK   80  A    between atoms: _198  and  _199
REMARK   81  A    between atoms: _202  and  _204
REMARK   82  A    between atoms: _204  and  _205
REMARK   83  A    between atoms: _204  and  _207
REMARK   84  A    between atoms: _207  and  _208
REMARK   85  A    between atoms: _213  and  _214
REMARK   86  A    between atoms: _216  and  _218
REMARK   87  A    between atoms: _218  and  _219
REMARK   88  A    between atoms: _218  and  _221
REMARK   89  A    between atoms: _221  and  _222
REMARK   90  A    between atoms: _222  and  _223
REMARK   91  A    between atoms: _228  and  _230
REMARK   92  A    between atoms: _230  and  _231
REMARK   93  A    between atoms: _230  and  _233
REMARK   94  A    between atoms: _233  and  _234
REMARK   95  A    between atoms: _239  and  _241
REMARK   96  A    between atoms: _241  and  _242
REMARK   97  A    between atoms: _241  and  _244
REMARK   98  A    between atoms: _244  and  _245
REMARK   99  A    between atoms: _248  and  _250
REMARK  100  A    between atoms: _250  and  _251
REMARK  101  A    between atoms: _250  and  _253
REMARK  102  A    between atoms: _253  and  _254
REMARK  103  A    between atoms: _254  and  _255
REMARK  104  A    between atoms: _258  and  _260
REMARK  105  A    between atoms: _260  and  _261
REMARK  106  A    between atoms: _260  and  _263
REMARK  107  A    between atoms: _263  and  _264
REMARK  108  A    between atoms: _267  and  _269
REMARK  109  A    between atoms: _269  and  _270
REMARK  110  A    between atoms: _269  and  _272
REMARK  111  A    between atoms: _272  and  _273
REMARK  112  A    between atoms: _283  and  _285
REMARK  113  A    between atoms: _285  and  _286
REMARK  114  A    between atoms: _288  and  _290
REMARK  115  A    between atoms: _290  and  _291
REMARK  116  A    between atoms: _290  and  _293
REMARK  117  A    between atoms: _293  and  _294
REMARK  118  A    between atoms: _297  and  _299
REMARK  119  A    between atoms: _299  and  _300
REMARK  120  A    between atoms: _299  and  _302
REMARK  121  A    between atoms: _302  and  _303
REMARK  122  A    between atoms: _305  and  _307
REMARK  123  A    between atoms: _307  and  _308
REMARK  124  A    between atoms: _307  and  _310
REMARK  125  A    between atoms: _310  and  _311
REMARK  126  A    between atoms: _321  and  _323
REMARK  127  A    between atoms: _323  and  _324
REMARK  128  A    between atoms: _323  and  _326
REMARK  129  A    between atoms: _326  and  _327
REMARK  130  A    between atoms: _327  and  _328
REMARK  131  A    between atoms: _328  and  _329
REMARK                            x       y       z     vdW  Elec       q    Type
REMARK                         _______ _______ _______ _____ _____    ______ ____
ROOT
ATOM      1  O   HOH     1       2.524  12.778  11.799  0.00  0.00    +0.000 OA
ENDROOT
TORSDOF 0
REMARK  Name = ../refined-set-2016/1v0k/1v0k_pocket.pdb
REMARK  131 active torsions:
REMARK  status: ('A' for Active; 'I' for Inactive)
REMARK    1  A    between atoms: _1  and  _3
REMARK    2  A    between atoms: _3  and  _4
REMARK    3  A    between atoms: _7  and  _9
REMARK    4  A    between atoms: _9  and  _10
REMARK    5  A    between atoms: _13  and  _15
REMARK    6  A    between atoms: _15  and  _16
REMARK    7  A    between atoms: _15  and  _18
REMARK    8  A    between atoms: _18  and  _19
REMARK    9  A    between atoms: _19  and  _20
REMARK   10  A    between atoms: _20  and  _21
REMARK   11  A    between atoms: _30  and  _32
REMARK   12  A    between atoms: _32  and  _33
REMARK   13  A    between atoms: _32  and  _35
REMARK   14  A    between atoms: _35  and  _36
REMARK   15  A    between atoms: _39  and  _41
REMARK   16  A    between atoms: _41  and  _42
REMARK   17  A    between atoms: _45  and  _47
REMARK   18  A    between atoms: _47  and  _48
REMARK   19  A    between atoms: _47  and  _50
REMARK   20  A    between atoms: _50  and  _51
REMARK   21  A    between atoms: _51  and  _52
REMARK   22  A    between atoms: _55  and  _57
REMARK   23  A    between atoms: _57  and  _58
REMARK   24  A    between atoms: _57  and  _60
REMARK   25  A    between atoms: _60  and  _61
REMARK   26  A    between atoms: _66  and  _68
REMARK   27  A    between atoms: _68  and  _69
REMARK   28  A    between atoms: _68  and  _71
REMARK   29  A    between atoms: _71  and  _72
REMARK   30  A    between atoms: _72  and  _73
REMARK   31  A    between atoms: _73  and  _74
REMARK   32  A    between atoms: _74  and  _75
REMARK   33  A    between atoms: _79  and  _81
REMARK   34  A    between atoms: _81  and  _82
REMARK   35  A    between atoms: _81  and  _84
REMARK   36  A    between atoms: _84  and  _85
REMARK   37  A    between atoms: _85  and  _86
REMARK   38  A    between atoms: _86  and  _87
REMARK   39  A    between atoms: _96  and  _98
REMARK   40  A    between atoms: _98  and  _99
REMARK   41  A    between atoms: _98  and  _101
REMARK   42  A    between atoms: _101  and  _102
REMARK   43  A    between atoms: _107  and  _109
REMARK   44  A    between atoms: _109  and  _110
REMARK   45  A    between atoms: _109  and  _112
REMARK   46  A    between atoms: _112  and  _113
REMARK   47  A    between atoms: _116  and  _118
REMARK   48  A    between atoms: _118  and  _119
REMARK   49  A    between atoms: _118  and  _121
REMARK   50  A    between atoms: _121  and  _122
REMARK   51  A    between atoms: _132  and  _134
REMARK   52  A    between atoms: _134  and  _135
REMARK   53  A    between atoms: _134  and  _137
REMARK   54  A    between atoms: _137  and  _138
REMARK   55  A    between atoms: _140  and  _142
REMARK   56  A    between atoms: _142  and  _143
REMARK   57  A    between atoms: _142  and  _145
REMARK   58  A    between atoms: _145  and  _146
REMARK   59  A    between atoms: _146  and  _147
REMARK   60  A    between atoms: _152  and  _154
REMARK   61  A    between atoms: _154  and  _155
REMARK   62  A    between atoms: _154  and  _157
REMARK   63  A    between atoms: _157  and  _158
REMARK   64  A    between atoms: _161  and  _163
REMARK   65  A    between atoms: _163  and  _164
REMARK   66  A    between atoms: _163  and  _166
REMARK   67  A    between atoms: _166  and  _167
REMARK   68  A    between atoms: _172  and  _174
REMARK   69  A    between atoms: _174  and  _175
REMARK   70  A    between atoms: _174  and  _177
REMARK   71  A    between atoms: _177  and  _178
REMARK   72  A    between atoms: _178  and  _179
REMARK   73  A    between atoms: _182  and  _184
REMARK   74  A    between atoms: _184  and  _185
REMARK   75  A    between atoms: _184  and  _187
REMARK   76  A    between atoms: _187  and  _188
REMARK   77  A    between atoms: _193  and  _195
REMARK   78  A    between atoms: _195  and  _196
REMARK   79  A    between atoms: _195  and  _198
REMARK   80  A    between atoms: _198  and  _199
REMARK   81  A    between atoms: _202  and  _204
REMARK   82  A    between atoms: _204  and  _205
REMARK   83  A    between atoms: _204  and  _207
REMARK   84  A    between atoms: _207  and  _208
REMARK   85  A    between atoms: _213  and  _214
REMARK   86  A    between atoms: _216  and  _218
REMARK   87  A    between atoms: _218  and  _219
REMARK   88  A    between atoms: _218  and  _221
REMARK   89  A    between atoms: _221  and  _222
REMARK   90  A    between atoms: _222  and  _223
REMARK   91  A    between atoms: _228  and  _230
REMARK   92  A    between atoms: _230  and  _231
REMARK   93  A    between atoms: _230  and  _233
REMARK   94  A    between atoms: _233  and  _234
REMARK   95  A    between atoms: _239  and  _241
REMARK   96  A    between atoms: _241  and  _242
REMARK   97  A    between atoms: _241  and  _244
REMARK   98  A    between atoms: _244  and  _245
REMARK   99  A    between atoms: _248  and  _250
REMARK  100  A    between atoms: _250  and  _251
REMARK  101  A    between atoms: _250  and  _253
REMARK  102  A    between atoms: _253  and  _254
REMARK  103  A    between atoms: _254  and  _255
REMARK  104  A    between atoms: _258  and  _260
REMARK  105  A    between atoms: _260  and  _261
REMARK  106  A    between atoms: _260  and  _263
REMARK  107  A    between atoms: _263  and  _264
REMARK  108  A    between atoms: _267  and  _269
REMARK  109  A    between atoms: _269  and  _270
REMARK  110  A    between atoms: _269  and  _272
REMARK  111  A    between atoms: _272  and  _273
REMARK  112  A    between atoms: _283  and  _285
REMARK  113  A    between atoms: _285  and  _286
REMARK  114  A    between atoms: _288  and  _290
REMARK  115  A    between atoms: _290  and  _291
REMARK  116  A    between atoms: _290  and  _293
REMARK  117  A    between atoms: _293  and  _294
REMARK  118  A    between atoms: _297  and  _299
REMARK  119  A    between atoms: _299  and  _300
REMARK  120  A    between atoms: _299  and  _302
REMARK  121  A    between atoms: _302  and  _303
REMARK  122  A    between atoms: _305  and  _307
REMARK  123  A    between atoms: _307  and  _308
REMARK  124  A    between atoms: _307  and  _310
REMARK  125  A    between atoms: _310  and  _311
REMARK  126  A    between atoms: _321  and  _323
REMARK  127  A    between atoms: _323  and  _324
REMARK  128  A    between atoms: _323  and  _326
REMARK  129  A    between atoms: _326  and  _327
REMARK  130  A    between atoms: _327  and  _328
REMARK  131  A    between atoms: _328  and  _329
REMARK                            x       y       z     vdW  Elec       q    Type
REMARK                         _______ _______ _______ _____ _____    ______ ____
ROOT
ATOM      1  O   HOH     1       8.565   9.124  13.319  0.00  0.00    +0.000 OA
ENDROOT
TORSDOF 0
REMARK  Name = ../refined-set-2016/1v0k/1v0k_pocket.pdb
REMARK  131 active torsions:
REMARK  status: ('A' for Active; 'I' for Inactive)
REMARK    1  A    between atoms: _1  and  _3
REMARK    2  A    between atoms: _3  and  _4
REMARK    3  A    between atoms: _7  and  _9
REMARK    4  A    between atoms: _9  and  _10
REMARK    5  A    between atoms: _13  and  _15
REMARK    6  A    between atoms: _15  and  _16
REMARK    7  A    between atoms: _15  and  _18
REMARK    8  A    between atoms: _18  and  _19
REMARK    9  A    between atoms: _19  and  _20
REMARK   10  A    between atoms: _20  and  _21
REMARK   11  A    between atoms: _30  and  _32
REMARK   12  A    between atoms: _32  and  _33
REMARK   13  A    between atoms: _32  and  _35
REMARK   14  A    between atoms: _35  and  _36
REMARK   15  A    between atoms: _39  and  _41
REMARK   16  A    between atoms: _41  and  _42
REMARK   17  A    between atoms: _45  and  _47
REMARK   18  A    between atoms: _47  and  _48
REMARK   19  A    between atoms: _47  and  _50
REMARK   20  A    between atoms: _50  and  _51
REMARK   21  A    between atoms: _51  and  _52
REMARK   22  A    between atoms: _55  and  _57
REMARK   23  A    between atoms: _57  and  _58
REMARK   24  A    between atoms: _57  and  _60
REMARK   25  A    between atoms: _60  and  _61
REMARK   26  A    between atoms: _66  and  _68
REMARK   27  A    between atoms: _68  and  _69
REMARK   28  A    between atoms: _68  and  _71
REMARK   29  A    between atoms: _71  and  _72
REMARK   30  A    between atoms: _72  and  _73
REMARK   31  A    between atoms: _73  and  _74
REMARK   32  A    between atoms: _74  and  _75
REMARK   33  A    between atoms: _79  and  _81
REMARK   34  A    between atoms: _81  and  _82
REMARK   35  A    between atoms: _81  and  _84
REMARK   36  A    between atoms: _84  and  _85
REMARK   37  A    between atoms: _85  and  _86
REMARK   38  A    between atoms: _86  and  _87
REMARK   39  A    between atoms: _96  and  _98
REMARK   40  A    between atoms: _98  and  _99
REMARK   41  A    between atoms: _98  and  _101
REMARK   42  A    between atoms: _101  and  _102
REMARK   43  A    between atoms: _107  and  _109
REMARK   44  A    between atoms: _109  and  _110
REMARK   45  A    between atoms: _109  and  _112
REMARK   46  A    between atoms: _112  and  _113
REMARK   47  A    between atoms: _116  and  _118
REMARK   48  A    between atoms: _118  and  _119
REMARK   49  A    between atoms: _118  and  _121
REMARK   50  A    between atoms: _121  and  _122
REMARK   51  A    between atoms: _132  and  _134
REMARK   52  A    between atoms: _134  and  _135
REMARK   53  A    between atoms: _134  and  _137
REMARK   54  A    between atoms: _137  and  _138
REMARK   55  A    between atoms: _140  and  _142
REMARK   56  A    between atoms: _142  and  _143
REMARK   57  A    between atoms: _142  and  _145
REMARK   58  A    between atoms: _145  and  _146
REMARK   59  A    between atoms: _146  and  _147
REMARK   60  A    between atoms: _152  and  _154
REMARK   61  A    between atoms: _154  and  _155
REMARK   62  A    between atoms: _154  and  _157
REMARK   63  A    between atoms: _157  and  _158
REMARK   64  A    between atoms: _161  and  _163
REMARK   65  A    between atoms: _163  and  _164
REMARK   66  A    between atoms: _163  and  _166
REMARK   67  A    between atoms: _166  and  _167
REMARK   68  A    between atoms: _172  and  _174
REMARK   69  A    between atoms: _174  and  _175
REMARK   70  A    between atoms: _174  and  _177
REMARK   71  A    between atoms: _177  and  _178
REMARK   72  A    between atoms: _178  and  _179
REMARK   73  A    between atoms: _182  and  _184
REMARK   74  A    between atoms: _184  and  _185
REMARK   75  A    between atoms: _184  and  _187
REMARK   76  A    between atoms: _187  and  _188
REMARK   77  A    between atoms: _193  and  _195
REMARK   78  A    between atoms: _195  and  _196
REMARK   79  A    between atoms: _195  and  _198
REMARK   80  A    between atoms: _198  and  _199
REMARK   81  A    between atoms: _202  and  _204
REMARK   82  A    between atoms: _204  and  _205
REMARK   83  A    between atoms: _204  and  _207
REMARK   84  A    between atoms: _207  and  _208
REMARK   85  A    between atoms: _213  and  _214
REMARK   86  A    between atoms: _216  and  _218
REMARK   87  A    between atoms: _218  and  _219
REMARK   88  A    between atoms: _218  and  _221
REMARK   89  A    between atoms: _221  and  _222
REMARK   90  A    between atoms: _222  and  _223
REMARK   91  A    between atoms: _228  and  _230
REMARK   92  A    between atoms: _230  and  _231
REMARK   93  A    between atoms: _230  and  _233
REMARK   94  A    between atoms: _233  and  _234
REMARK   95  A    between atoms: _239  and  _241
REMARK   96  A    between atoms: _241  and  _242
REMARK   97  A    between atoms: _241  and  _244
REMARK   98  A    between atoms: _244  and  _245
REMARK   99  A    between atoms: _248  and  _250
REMARK  100  A    between atoms: _250  and  _251
REMARK  101  A    between atoms: _250  and  _253
REMARK  102  A    between atoms: _253  and  _254
REMARK  103  A    between atoms: _254  and  _255
REMARK  104  A    between atoms: _258  and  _260
REMARK  105  A    between atoms: _260  and  _261
REMARK  106  A    between atoms: _260  and  _263
REMARK  107  A    between atoms: _263  and  _264
REMARK  108  A    between atoms: _267  and  _269
REMARK  109  A    between atoms: _269  and  _270
REMARK  110  A    between atoms: _269  and  _272
REMARK  111  A    between atoms: _272  and  _273
REMARK  112  A    between atoms: _283  and  _285
REMARK  113  A    between atoms: _285  and  _286
REMARK  114  A    between atoms: _288  and  _290
REMARK  115  A    between atoms: _290  and  _291
REMARK  116  A    between atoms: _290  and  _293
REMARK  117  A    between atoms: _293  and  _294
REMARK  118  A    between atoms: _297  and  _299
REMARK  119  A    between atoms: _299  and  _300
REMARK  120  A    between atoms: _299  and  _302
REMARK  121  A    between atoms: _302  and  _303
REMARK  122  A    between atoms: _305  and  _307
REMARK  123  A    between atoms: _307  and  _308
REMARK  124  A    between atoms: _307  and  _310
REMARK  125  A    between atoms: _310  and  _311
REMARK  126  A    between atoms: _321  and  _323
REMARK  127  A    between atoms: _323  and  _324
REMARK  128  A    between atoms: _323  and  _326
REMARK  129  A    between atoms: _326  and  _327
REMARK  130  A    between atoms: _327  and  _328
REMARK  131  A    between atoms: _328  and  _329
REMARK                            x       y       z     vdW  Elec       q    Type
REMARK                         _______ _______ _______ _____ _____    ______ ____
ROOT
ATOM      1  O   HOH     1      10.255  19.365   9.310  0.00  0.00    +0.000 OA
ENDROOT
TORSDOF 0
REMARK  Name = ../refined-set-2016/1v0k/1v0k_pocket.pdb
REMARK  131 active torsions:
REMARK  status: ('A' for Active; 'I' for Inactive)
REMARK    1  A    between atoms: _1  and  _3
REMARK    2  A    between atoms: _3  and  _4
REMARK    3  A    between atoms: _7  and  _9
REMARK    4  A    between atoms: _9  and  _10
REMARK    5  A    between atoms: _13  and  _15
REMARK    6  A    between atoms: _15  and  _16
REMARK    7  A    between atoms: _15  and  _18
REMARK    8  A    between atoms: _18  and  _19
REMARK    9  A    between atoms: _19  and  _20
REMARK   10  A    between atoms: _20  and  _21
REMARK   11  A    between atoms: _30  and  _32
REMARK   12  A    between atoms: _32  and  _33
REMARK   13  A    between atoms: _32  and  _35
REMARK   14  A    between atoms: _35  and  _36
REMARK   15  A    between atoms: _39  and  _41
REMARK   16  A    between atoms: _41  and  _42
REMARK   17  A    between atoms: _45  and  _47
REMARK   18  A    between atoms: _47  and  _48
REMARK   19  A    between atoms: _47  and  _50
REMARK   20  A    between atoms: _50  and  _51
REMARK   21  A    between atoms: _51  and  _52
REMARK   22  A    between atoms: _55  and  _57
REMARK   23  A    between atoms: _57  and  _58
REMARK   24  A    between atoms: _57  and  _60
REMARK   25  A    between atoms: _60  and  _61
REMARK   26  A    between atoms: _66  and  _68
REMARK   27  A    between atoms: _68  and  _69
REMARK   28  A    between atoms: _68  and  _71
REMARK   29  A    between atoms: _71  and  _72
REMARK   30  A    between atoms: _72  and  _73
REMARK   31  A    between atoms: _73  and  _74
REMARK   32  A    between atoms: _74  and  _75
REMARK   33  A    between atoms: _79  and  _81
REMARK   34  A    between atoms: _81  and  _82
REMARK   35  A    between atoms: _81  and  _84
REMARK   36  A    between atoms: _84  and  _85
REMARK   37  A    between atoms: _85  and  _86
REMARK   38  A    between atoms: _86  and  _87
REMARK   39  A    between atoms: _96  and  _98
REMARK   40  A    between atoms: _98  and  _99
REMARK   41  A    between atoms: _98  and  _101
REMARK   42  A    between atoms: _101  and  _102
REMARK   43  A    between atoms: _107  and  _109
REMARK   44  A    between atoms: _109  and  _110
REMARK   45  A    between atoms: _109  and  _112
REMARK   46  A    between atoms: _112  and  _113
REMARK   47  A    between atoms: _116  and  _118
REMARK   48  A    between atoms: _118  and  _119
REMARK   49  A    between atoms: _118  and  _121
REMARK   50  A    between atoms: _121  and  _122
REMARK   51  A    between atoms: _132  and  _134
REMARK   52  A    between atoms: _134  and  _135
REMARK   53  A    between atoms: _134  and  _137
REMARK   54  A    between atoms: _137  and  _138
REMARK   55  A    between atoms: _140  and  _142
REMARK   56  A    between atoms: _142  and  _143
REMARK   57  A    between atoms: _142  and  _145
REMARK   58  A    between atoms: _145  and  _146
REMARK   59  A    between atoms: _146  and  _147
REMARK   60  A    between atoms: _152  and  _154
REMARK   61  A    between atoms: _154  and  _155
REMARK   62  A    between atoms: _154  and  _157
REMARK   63  A    between atoms: _157  and  _158
REMARK   64  A    between atoms: _161  and  _163
REMARK   65  A    between atoms: _163  and  _164
REMARK   66  A    between atoms: _163  and  _166
REMARK   67  A    between atoms: _166  and  _167
REMARK   68  A    between atoms: _172  and  _174
REMARK   69  A    between atoms: _174  and  _175
REMARK   70  A    between atoms: _174  and  _177
REMARK   71  A    between atoms: _177  and  _178
REMARK   72  A    between atoms: _178  and  _179
REMARK   73  A    between atoms: _182  and  _184
REMARK   74  A    between atoms: _184  and  _185
REMARK   75  A    between atoms: _184  and  _187
REMARK   76  A    between atoms: _187  and  _188
REMARK   77  A    between atoms: _193  and  _195
REMARK   78  A    between atoms: _195  and  _196
REMARK   79  A    between atoms: _195  and  _198
REMARK   80  A    between atoms: _198  and  _199
REMARK   81  A    between atoms: _202  and  _204
REMARK   82  A    between atoms: _204  and  _205
REMARK   83  A    between atoms: _204  and  _207
REMARK   84  A    between atoms: _207  and  _208
REMARK   85  A    between atoms: _213  and  _214
REMARK   86  A    between atoms: _216  and  _218
REMARK   87  A    between atoms: _218  and  _219
REMARK   88  A    between atoms: _218  and  _221
REMARK   89  A    between atoms: _221  and  _222
REMARK   90  A    between atoms: _222  and  _223
REMARK   91  A    between atoms: _228  and  _230
REMARK   92  A    between atoms: _230  and  _231
REMARK   93  A    between atoms: _230  and  _233
REMARK   94  A    between atoms: _233  and  _234
REMARK   95  A    between atoms: _239  and  _241
REMARK   96  A    between atoms: _241  and  _242
REMARK   97  A    between atoms: _241  and  _244
REMARK   98  A    between atoms: _244  and  _245
REMARK   99  A    between atoms: _248  and  _250
REMARK  100  A    between atoms: _250  and  _251
REMARK  101  A    between atoms: _250  and  _253
REMARK  102  A    between atoms: _253  and  _254
REMARK  103  A    between atoms: _254  and  _255
REMARK  104  A    between atoms: _258  and  _260
REMARK  105  A    between atoms: _260  and  _261
REMARK  106  A    between atoms: _260  and  _263
REMARK  107  A    between atoms: _263  and  _264
REMARK  108  A    between atoms: _267  and  _269
REMARK  109  A    between atoms: _269  and  _270
REMARK  110  A    between atoms: _269  and  _272
REMARK  111  A    between atoms: _272  and  _273
REMARK  112  A    between atoms: _283  and  _285
REMARK  113  A    between atoms: _285  and  _286
REMARK  114  A    between atoms: _288  and  _290
REMARK  115  A    between atoms: _290  and  _291
REMARK  116  A    between atoms: _290  and  _293
REMARK  117  A    between atoms: _293  and  _294
REMARK  118  A    between atoms: _297  and  _299
REMARK  119  A    between atoms: _299  and  _300
REMARK  120  A    between atoms: _299  and  _302
REMARK  121  A    between atoms: _302  and  _303
REMARK  122  A    between atoms: _305  and  _307
REMARK  123  A    between atoms: _307  and  _308
REMARK  124  A    between atoms: _307  and  _310
REMARK  125  A    between atoms: _310  and  _311
REMARK  126  A    between atoms: _321  and  _323
REMARK  127  A    between atoms: _323  and  _324
REMARK  128  A    between atoms: _323  and  _326
REMARK  129  A    between atoms: _326  and  _327
REMARK  130  A    between atoms: _327  and  _328
REMARK  131  A    between atoms: _328  and  _329
REMARK                            x       y       z     vdW  Elec       q    Type
REMARK                         _______ _______ _______ _____ _____    ______ ____
ROOT
ATOM      1  O   HOH     1       4.313  16.054   9.180  0.00  0.00    +0.000 OA
ENDROOT
TORSDOF 0
REMARK  Name = ../refined-set-2016/1v0k/1v0k_pocket.pdb
REMARK  131 active torsions:
REMARK  status: ('A' for Active; 'I' for Inactive)
REMARK    1  A    between atoms: _1  and  _3
REMARK    2  A    between atoms: _3  and  _4
REMARK    3  A    between atoms: _7  and  _9
REMARK    4  A    between atoms: _9  and  _10
REMARK    5  A    between atoms: _13  and  _15
REMARK    6  A    between atoms: _15  and  _16
REMARK    7  A    between atoms: _15  and  _18
REMARK    8  A    between atoms: _18  and  _19
REMARK    9  A    between atoms: _19  and  _20
REMARK   10  A    between atoms: _20  and  _21
REMARK   11  A    between atoms: _30  and  _32
REMARK   12  A    between atoms: _32  and  _33
REMARK   13  A    between atoms: _32  and  _35
REMARK   14  A    between atoms: _35  and  _36
REMARK   15  A    between atoms: _39  and  _41
REMARK   16  A    between atoms: _41  and  _42
REMARK   17  A    between atoms: _45  and  _47
REMARK   18  A    between atoms: _47  and  _48
REMARK   19  A    between atoms: _47  and  _50
REMARK   20  A    between atoms: _50  and  _51
REMARK   21  A    between atoms: _51  and  _52
REMARK   22  A    between atoms: _55  and  _57
REMARK   23  A    between atoms: _57  and  _58
REMARK   24  A    between atoms: _57  and  _60
REMARK   25  A    between atoms: _60  and  _61
REMARK   26  A    between atoms: _66  and  _68
REMARK   27  A    between atoms: _68  and  _69
REMARK   28  A    between atoms: _68  and  _71
REMARK   29  A    between atoms: _71  and  _72
REMARK   30  A    between atoms: _72  and  _73
REMARK   31  A    between atoms: _73  and  _74
REMARK   32  A    between atoms: _74  and  _75
REMARK   33  A    between atoms: _79  and  _81
REMARK   34  A    between atoms: _81  and  _82
REMARK   35  A    between atoms: _81  and  _84
REMARK   36  A    between atoms: _84  and  _85
REMARK   37  A    between atoms: _85  and  _86
REMARK   38  A    between atoms: _86  and  _87
REMARK   39  A    between atoms: _96  and  _98
REMARK   40  A    between atoms: _98  and  _99
REMARK   41  A    between atoms: _98  and  _101
REMARK   42  A    between atoms: _101  and  _102
REMARK   43  A    between atoms: _107  and  _109
REMARK   44  A    between atoms: _109  and  _110
REMARK   45  A    between atoms: _109  and  _112
REMARK   46  A    between atoms: _112  and  _113
REMARK   47  A    between atoms: _116  and  _118
REMARK   48  A    between atoms: _118  and  _119
REMARK   49  A    between atoms: _118  and  _121
REMARK   50  A    between atoms: _121  and  _122
REMARK   51  A    between atoms: _132  and  _134
REMARK   52  A    between atoms: _134  and  _135
REMARK   53  A    between atoms: _134  and  _137
REMARK   54  A    between atoms: _137  and  _138
REMARK   55  A    between atoms: _140  and  _142
REMARK   56  A    between atoms: _142  and  _143
REMARK   57  A    between atoms: _142  and  _145
REMARK   58  A    between atoms: _145  and  _146
REMARK   59  A    between atoms: _146  and  _147
REMARK   60  A    between atoms: _152  and  _154
REMARK   61  A    between atoms: _154  and  _155
REMARK   62  A    between atoms: _154  and  _157
REMARK   63  A    between atoms: _157  and  _158
REMARK   64  A    between atoms: _161  and  _163
REMARK   65  A    between atoms: _163  and  _164
REMARK   66  A    between atoms: _163  and  _166
REMARK   67  A    between atoms: _166  and  _167
REMARK   68  A    between atoms: _172  and  _174
REMARK   69  A    between atoms: _174  and  _175
REMARK   70  A    between atoms: _174  and  _177
REMARK   71  A    between atoms: _177  and  _178
REMARK   72  A    between atoms: _178  and  _179
REMARK   73  A    between atoms: _182  and  _184
REMARK   74  A    between atoms: _184  and  _185
REMARK   75  A    between atoms: _184  and  _187
REMARK   76  A    between atoms: _187  and  _188
REMARK   77  A    between atoms: _193  and  _195
REMARK   78  A    between atoms: _195  and  _196
REMARK   79  A    between atoms: _195  and  _198
REMARK   80  A    between atoms: _198  and  _199
REMARK   81  A    between atoms: _202  and  _204
REMARK   82  A    between atoms: _204  and  _205
REMARK   83  A    between atoms: _204  and  _207
REMARK   84  A    between atoms: _207  and  _208
REMARK   85  A    between atoms: _213  and  _214
REMARK   86  A    between atoms: _216  and  _218
REMARK   87  A    between atoms: _218  and  _219
REMARK   88  A    between atoms: _218  and  _221
REMARK   89  A    between atoms: _221  and  _222
REMARK   90  A    between atoms: _222  and  _223
REMARK   91  A    between atoms: _228  and  _230
REMARK   92  A    between atoms: _230  and  _231
REMARK   93  A    between atoms: _230  and  _233
REMARK   94  A    between atoms: _233  and  _234
REMARK   95  A    between atoms: _239  and  _241
REMARK   96  A    between atoms: _241  and  _242
REMARK   97  A    between atoms: _241  and  _244
REMARK   98  A    between atoms: _244  and  _245
REMARK   99  A    between atoms: _248  and  _250
REMARK  100  A    between atoms: _250  and  _251
REMARK  101  A    between atoms: _250  and  _253
REMARK  102  A    between atoms: _253  and  _254
REMARK  103  A    between atoms: _254  and  _255
REMARK  104  A    between atoms: _258  and  _260
REMARK  105  A    between atoms: _260  and  _261
REMARK  106  A    between atoms: _260  and  _263
REMARK  107  A    between atoms: _263  and  _264
REMARK  108  A    between atoms: _267  and  _269
REMARK  109  A    between atoms: _269  and  _270
REMARK  110  A    between atoms: _269  and  _272
REMARK  111  A    between atoms: _272  and  _273
REMARK  112  A    between atoms: _283  and  _285
REMARK  113  A    between atoms: _285  and  _286
REMARK  114  A    between atoms: _288  and  _290
REMARK  115  A    between atoms: _290  and  _291
REMARK  116  A    between atoms: _290  and  _293
REMARK  117  A    between atoms: _293  and  _294
REMARK  118  A    between atoms: _297  and  _299
REMARK  119  A    between atoms: _299  and  _300
REMARK  120  A    between atoms: _299  and  _302
REMARK  121  A    between atoms: _302  and  _303
REMARK  122  A    between atoms: _305  and  _307
REMARK  123  A    between atoms: _307  and  _308
REMARK  124  A    between atoms: _307  and  _310
REMARK  125  A    between atoms: _310  and  _311
REMARK  126  A    between atoms: _321  and  _323
REMARK  127  A    between atoms: _323  and  _324
REMARK  128  A    between atoms: _323  and  _326
REMARK  129  A    between atoms: _326  and  _327
REMARK  130  A    between atoms: _327  and  _328
REMARK  131  A    between atoms: _328  and  _329
REMARK                            x       y       z     vdW  Elec       q    Type
REMARK                         _______ _______ _______ _____ _____    ______ ____
ROOT
ATOM      1  O   HOH     1       5.623  19.424  10.777  0.00  0.00    +0.000 OA
ENDROOT
TORSDOF 0
REMARK  Name = ../refined-set-2016/1v0k/1v0k_pocket.pdb
REMARK  131 active torsions:
REMARK  status: ('A' for Active; 'I' for Inactive)
REMARK    1  A    between atoms: _1  and  _3
REMARK    2  A    between atoms: _3  and  _4
REMARK    3  A    between atoms: _7  and  _9
REMARK    4  A    between atoms: _9  and  _10
REMARK    5  A    between atoms: _13  and  _15
REMARK    6  A    between atoms: _15  and  _16
REMARK    7  A    between atoms: _15  and  _18
REMARK    8  A    between atoms: _18  and  _19
REMARK    9  A    between atoms: _19  and  _20
REMARK   10  A    between atoms: _20  and  _21
REMARK   11  A    between atoms: _30  and  _32
REMARK   12  A    between atoms: _32  and  _33
REMARK   13  A    between atoms: _32  and  _35
REMARK   14  A    between atoms: _35  and  _36
REMARK   15  A    between atoms: _39  and  _41
REMARK   16  A    between atoms: _41  and  _42
REMARK   17  A    between atoms: _45  and  _47
REMARK   18  A    between atoms: _47  and  _48
REMARK   19  A    between atoms: _47  and  _50
REMARK   20  A    between atoms: _50  and  _51
REMARK   21  A    between atoms: _51  and  _52
REMARK   22  A    between atoms: _55  and  _57
REMARK   23  A    between atoms: _57  and  _58
REMARK   24  A    between atoms: _57  and  _60
REMARK   25  A    between atoms: _60  and  _61
REMARK   26  A    between atoms: _66  and  _68
REMARK   27  A    between atoms: _68  and  _69
REMARK   28  A    between atoms: _68  and  _71
REMARK   29  A    between atoms: _71  and  _72
REMARK   30  A    between atoms: _72  and  _73
REMARK   31  A    between atoms: _73  and  _74
REMARK   32  A    between atoms: _74  and  _75
REMARK   33  A    between atoms: _79  and  _81
REMARK   34  A    between atoms: _81  and  _82
REMARK   35  A    between atoms: _81  and  _84
REMARK   36  A    between atoms: _84  and  _85
REMARK   37  A    between atoms: _85  and  _86
REMARK   38  A    between atoms: _86  and  _87
REMARK   39  A    between atoms: _96  and  _98
REMARK   40  A    between atoms: _98  and  _99
REMARK   41  A    between atoms: _98  and  _101
REMARK   42  A    between atoms: _101  and  _102
REMARK   43  A    between atoms: _107  and  _109
REMARK   44  A    between atoms: _109  and  _110
REMARK   45  A    between atoms: _109  and  _112
REMARK   46  A    between atoms: _112  and  _113
REMARK   47  A    between atoms: _116  and  _118
REMARK   48  A    between atoms: _118  and  _119
REMARK   49  A    between atoms: _118  and  _121
REMARK   50  A    between atoms: _121  and  _122
REMARK   51  A    between atoms: _132  and  _134
REMARK   52  A    between atoms: _134  and  _135
REMARK   53  A    between atoms: _134  and  _137
REMARK   54  A    between atoms: _137  and  _138
REMARK   55  A    between atoms: _140  and  _142
REMARK   56  A    between atoms: _142  and  _143
REMARK   57  A    between atoms: _142  and  _145
REMARK   58  A    between atoms: _145  and  _146
REMARK   59  A    between atoms: _146  and  _147
REMARK   60  A    between atoms: _152  and  _154
REMARK   61  A    between atoms: _154  and  _155
REMARK   62  A    between atoms: _154  and  _157
REMARK   63  A    between atoms: _157  and  _158
REMARK   64  A    between atoms: _161  and  _163
REMARK   65  A    between atoms: _163  and  _164
REMARK   66  A    between atoms: _163  and  _166
REMARK   67  A    between atoms: _166  and  _167
REMARK   68  A    between atoms: _172  and  _174
REMARK   69  A    between atoms: _174  and  _175
REMARK   70  A    between atoms: _174  and  _177
REMARK   71  A    between atoms: _177  and  _178
REMARK   72  A    between atoms: _178  and  _179
REMARK   73  A    between atoms: _182  and  _184
REMARK   74  A    between atoms: _184  and  _185
REMARK   75  A    between atoms: _184  and  _187
REMARK   76  A    between atoms: _187  and  _188
REMARK   77  A    between atoms: _193  and  _195
REMARK   78  A    between atoms: _195  and  _196
REMARK   79  A    between atoms: _195  and  _198
REMARK   80  A    between atoms: _198  and  _199
REMARK   81  A    between atoms: _202  and  _204
REMARK   82  A    between atoms: _204  and  _205
REMARK   83  A    between atoms: _204  and  _207
REMARK   84  A    between atoms: _207  and  _208
REMARK   85  A    between atoms: _213  and  _214
REMARK   86  A    between atoms: _216  and  _218
REMARK   87  A    between atoms: _218  and  _219
REMARK   88  A    between atoms: _218  and  _221
REMARK   89  A    between atoms: _221  and  _222
REMARK   90  A    between atoms: _222  and  _223
REMARK   91  A    between atoms: _228  and  _230
REMARK   92  A    between atoms: _230  and  _231
REMARK   93  A    between atoms: _230  and  _233
REMARK   94  A    between atoms: _233  and  _234
REMARK   95  A    between atoms: _239  and  _241
REMARK   96  A    between atoms: _241  and  _242
REMARK   97  A    between atoms: _241  and  _244
REMARK   98  A    between atoms: _244  and  _245
REMARK   99  A    between atoms: _248  and  _250
REMARK  100  A    between atoms: _250  and  _251
REMARK  101  A    between atoms: _250  and  _253
REMARK  102  A    between atoms: _253  and  _254
REMARK  103  A    between atoms: _254  and  _255
REMARK  104  A    between atoms: _258  and  _260
REMARK  105  A    between atoms: _260  and  _261
REMARK  106  A    between atoms: _260  and  _263
REMARK  107  A    between atoms: _263  and  _264
REMARK  108  A    between atoms: _267  and  _269
REMARK  109  A    between atoms: _269  and  _270
REMARK  110  A    between atoms: _269  and  _272
REMARK  111  A    between atoms: _272  and  _273
REMARK  112  A    between atoms: _283  and  _285
REMARK  113  A    between atoms: _285  and  _286
REMARK  114  A    between atoms: _288  and  _290
REMARK  115  A    between atoms: _290  and  _291
REMARK  116  A    between atoms: _290  and  _293
REMARK  117  A    between atoms: _293  and  _294
REMARK  118  A    between atoms: _297  and  _299
REMARK  119  A    between atoms: _299  and  _300
REMARK  120  A    between atoms: _299  and  _302
REMARK  121  A    between atoms: _302  and  _303
REMARK  122  A    between atoms: _305  and  _307
REMARK  123  A    between atoms: _307  and  _308
REMARK  124  A    between atoms: _307  and  _310
REMARK  125  A    between atoms: _310  and  _311
REMARK  126  A    between atoms: _321  and  _323
REMARK  127  A    between atoms: _323  and  _324
REMARK  128  A    between atoms: _323  and  _326
REMARK  129  A    between atoms: _326  and  _327
REMARK  130  A    between atoms: _327  and  _328
REMARK  131  A    between atoms: _328  and  _329
REMARK                            x       y       z     vdW  Elec       q    Type
REMARK                         _______ _______ _______ _____ _____    ______ ____
ROOT
ATOM      1  O   HOH     1       3.357   9.841  14.738  0.00  0.00    +0.000 OA
ENDROOT
TORSDOF 0
REMARK  Name = ../refined-set-2016/1v0k/1v0k_pocket.pdb
REMARK  131 active torsions:
REMARK  status: ('A' for Active; 'I' for Inactive)
REMARK    1  A    between atoms: _1  and  _3
REMARK    2  A    between atoms: _3  and  _4
REMARK    3  A    between atoms: _7  and  _9
REMARK    4  A    between atoms: _9  and  _10
REMARK    5  A    between atoms: _13  and  _15
REMARK    6  A    between atoms: _15  and  _16
REMARK    7  A    between atoms: _15  and  _18
REMARK    8  A    between atoms: _18  and  _19
REMARK    9  A    between atoms: _19  and  _20
REMARK   10  A    between atoms: _20  and  _21
REMARK   11  A    between atoms: _30  and  _32
REMARK   12  A    between atoms: _32  and  _33
REMARK   13  A    between atoms: _32  and  _35
REMARK   14  A    between atoms: _35  and  _36
REMARK   15  A    between atoms: _39  and  _41
REMARK   16  A    between atoms: _41  and  _42
REMARK   17  A    between atoms: _45  and  _47
REMARK   18  A    between atoms: _47  and  _48
REMARK   19  A    between atoms: _47  and  _50
REMARK   20  A    between atoms: _50  and  _51
REMARK   21  A    between atoms: _51  and  _52
REMARK   22  A    between atoms: _55  and  _57
REMARK   23  A    between atoms: _57  and  _58
REMARK   24  A    between atoms: _57  and  _60
REMARK   25  A    between atoms: _60  and  _61
REMARK   26  A    between atoms: _66  and  _68
REMARK   27  A    between atoms: _68  and  _69
REMARK   28  A    between atoms: _68  and  _71
REMARK   29  A    between atoms: _71  and  _72
REMARK   30  A    between atoms: _72  and  _73
REMARK   31  A    between atoms: _73  and  _74
REMARK   32  A    between atoms: _74  and  _75
REMARK   33  A    between atoms: _79  and  _81
REMARK   34  A    between atoms: _81  and  _82
REMARK   35  A    between atoms: _81  and  _84
REMARK   36  A    between atoms: _84  and  _85
REMARK   37  A    between atoms: _85  and  _86
REMARK   38  A    between atoms: _86  and  _87
REMARK   39  A    between atoms: _96  and  _98
REMARK   40  A    between atoms: _98  and  _99
REMARK   41  A    between atoms: _98  and  _101
REMARK   42  A    between atoms: _101  and  _102
REMARK   43  A    between atoms: _107  and  _109
REMARK   44  A    between atoms: _109  and  _110
REMARK   45  A    between atoms: _109  and  _112
REMARK   46  A    between atoms: _112  and  _113
REMARK   47  A    between atoms: _116  and  _118
REMARK   48  A    between atoms: _118  and  _119
REMARK   49  A    between atoms: _118  and  _121
REMARK   50  A    between atoms: _121  and  _122
REMARK   51  A    between atoms: _132  and  _134
REMARK   52  A    between atoms: _134  and  _135
REMARK   53  A    between atoms: _134  and  _137
REMARK   54  A    between atoms: _137  and  _138
REMARK   55  A    between atoms: _140  and  _142
REMARK   56  A    between atoms: _142  and  _143
REMARK   57  A    between atoms: _142  and  _145
REMARK   58  A    between atoms: _145  and  _146
REMARK   59  A    between atoms: _146  and  _147
REMARK   60  A    between atoms: _152  and  _154
REMARK   61  A    between atoms: _154  and  _155
REMARK   62  A    between atoms: _154  and  _157
REMARK   63  A    between atoms: _157  and  _158
REMARK   64  A    between atoms: _161  and  _163
REMARK   65  A    between atoms: _163  and  _164
REMARK   66  A    between atoms: _163  and  _166
REMARK   67  A    between atoms: _166  and  _167
REMARK   68  A    between atoms: _172  and  _174
REMARK   69  A    between atoms: _174  and  _175
REMARK   70  A    between atoms: _174  and  _177
REMARK   71  A    between atoms: _177  and  _178
REMARK   72  A    between atoms: _178  and  _179
REMARK   73  A    between atoms: _182  and  _184
REMARK   74  A    between atoms: _184  and  _185
REMARK   75  A    between atoms: _184  and  _187
REMARK   76  A    between atoms: _187  and  _188
REMARK   77  A    between atoms: _193  and  _195
REMARK   78  A    between atoms: _195  and  _196
REMARK   79  A    between atoms: _195  and  _198
REMARK   80  A    between atoms: _198  and  _199
REMARK   81  A    between atoms: _202  and  _204
REMARK   82  A    between atoms: _204  and  _205
REMARK   83  A    between atoms: _204  and  _207
REMARK   84  A    between atoms: _207  and  _208
REMARK   85  A    between atoms: _213  and  _214
REMARK   86  A    between atoms: _216  and  _218
REMARK   87  A    between atoms: _218  and  _219
REMARK   88  A    between atoms: _218  and  _221
REMARK   89  A    between atoms: _221  and  _222
REMARK   90  A    between atoms: _222  and  _223
REMARK   91  A    between atoms: _228  and  _230
REMARK   92  A    between atoms: _230  and  _231
REMARK   93  A    between atoms: _230  and  _233
REMARK   94  A    between atoms: _233  and  _234
REMARK   95  A    between atoms: _239  and  _241
REMARK   96  A    between atoms: _241  and  _242
REMARK   97  A    between atoms: _241  and  _244
REMARK   98  A    between atoms: _244  and  _245
REMARK   99  A    between atoms: _248  and  _250
REMARK  100  A    between atoms: _250  and  _251
REMARK  101  A    between atoms: _250  and  _253
REMARK  102  A    between atoms: _253  and  _254
REMARK  103  A    between atoms: _254  and  _255
REMARK  104  A    between atoms: _258  and  _260
REMARK  105  A    between atoms: _260  and  _261
REMARK  106  A    between atoms: _260  and  _263
REMARK  107  A    between atoms: _263  and  _264
REMARK  108  A    between atoms: _267  and  _269
REMARK  109  A    between atoms: _269  and  _270
REMARK  110  A    between atoms: _269  and  _272
REMARK  111  A    between atoms: _272  and  _273
REMARK  112  A    between atoms: _283  and  _285
REMARK  113  A    between atoms: _285  and  _286
REMARK  114  A    between atoms: _288  and  _290
REMARK  115  A    between atoms: _290  and  _291
REMARK  116  A    between atoms: _290  and  _293
REMARK  117  A    between atoms: _293  and  _294
REMARK  118  A    between atoms: _297  and  _299
REMARK  119  A    between atoms: _299  and  _300
REMARK  120  A    between atoms: _299  and  _302
REMARK  121  A    between atoms: _302  and  _303
REMARK  122  A    between atoms: _305  and  _307
REMARK  123  A    between atoms: _307  and  _308
REMARK  124  A    between atoms: _307  and  _310
REMARK  125  A    between atoms: _310  and  _311
REMARK  126  A    between atoms: _321  and  _323
REMARK  127  A    between atoms: _323  and  _324
REMARK  128  A    between atoms: _323  and  _326
REMARK  129  A    between atoms: _326  and  _327
REMARK  130  A    between atoms: _327  and  _328
REMARK  131  A    between atoms: _328  and  _329
REMARK                            x       y       z     vdW  Elec       q    Type
REMARK                         _______ _______ _______ _____ _____    ______ ____
ROOT
ATOM      1  O   HOH     1       1.969  11.354  18.459  0.00  0.00    +0.000 OA
ENDROOT
TORSDOF 0
REMARK  Name = ../refined-set-2016/1v0k/1v0k_pocket.pdb
REMARK  131 active torsions:
REMARK  status: ('A' for Active; 'I' for Inactive)
REMARK    1  A    between atoms: _1  and  _3
REMARK    2  A    between atoms: _3  and  _4
REMARK    3  A    between atoms: _7  and  _9
REMARK    4  A    between atoms: _9  and  _10
REMARK    5  A    between atoms: _13  and  _15
REMARK    6  A    between atoms: _15  and  _16
REMARK    7  A    between atoms: _15  and  _18
REMARK    8  A    between atoms: _18  and  _19
REMARK    9  A    between atoms: _19  and  _20
REMARK   10  A    between atoms: _20  and  _21
REMARK   11  A    between atoms: _30  and  _32
REMARK   12  A    between atoms: _32  and  _33
REMARK   13  A    between atoms: _32  and  _35
REMARK   14  A    between atoms: _35  and  _36
REMARK   15  A    between atoms: _39  and  _41
REMARK   16  A    between atoms: _41  and  _42
REMARK   17  A    between atoms: _45  and  _47
REMARK   18  A    between atoms: _47  and  _48
REMARK   19  A    between atoms: _47  and  _50
REMARK   20  A    between atoms: _50  and  _51
REMARK   21  A    between atoms: _51  and  _52
REMARK   22  A    between atoms: _55  and  _57
REMARK   23  A    between atoms: _57  and  _58
REMARK   24  A    between atoms: _57  and  _60
REMARK   25  A    between atoms: _60  and  _61
REMARK   26  A    between atoms: _66  and  _68
REMARK   27  A    between atoms: _68  and  _69
REMARK   28  A    between atoms: _68  and  _71
REMARK   29  A    between atoms: _71  and  _72
REMARK   30  A    between atoms: _72  and  _73
REMARK   31  A    between atoms: _73  and  _74
REMARK   32  A    between atoms: _74  and  _75
REMARK   33  A    between atoms: _79  and  _81
REMARK   34  A    between atoms: _81  and  _82
REMARK   35  A    between atoms: _81  and  _84
REMARK   36  A    between atoms: _84  and  _85
REMARK   37  A    between atoms: _85  and  _86
REMARK   38  A    between atoms: _86  and  _87
REMARK   39  A    between atoms: _96  and  _98
REMARK   40  A    between atoms: _98  and  _99
REMARK   41  A    between atoms: _98  and  _101
REMARK   42  A    between atoms: _101  and  _102
REMARK   43  A    between atoms: _107  and  _109
REMARK   44  A    between atoms: _109  and  _110
REMARK   45  A    between atoms: _109  and  _112
REMARK   46  A    between atoms: _112  and  _113
REMARK   47  A    between atoms: _116  and  _118
REMARK   48  A    between atoms: _118  and  _119
REMARK   49  A    between atoms: _118  and  _121
REMARK   50  A    between atoms: _121  and  _122
REMARK   51  A    between atoms: _132  and  _134
REMARK   52  A    between atoms: _134  and  _135
REMARK   53  A    between atoms: _134  and  _137
REMARK   54  A    between atoms: _137  and  _138
REMARK   55  A    between atoms: _140  and  _142
REMARK   56  A    between atoms: _142  and  _143
REMARK   57  A    between atoms: _142  and  _145
REMARK   58  A    between atoms: _145  and  _146
REMARK   59  A    between atoms: _146  and  _147
REMARK   60  A    between atoms: _152  and  _154
REMARK   61  A    between atoms: _154  and  _155
REMARK   62  A    between atoms: _154  and  _157
REMARK   63  A    between atoms: _157  and  _158
REMARK   64  A    between atoms: _161  and  _163
REMARK   65  A    between atoms: _163  and  _164
REMARK   66  A    between atoms: _163  and  _166
REMARK   67  A    between atoms: _166  and  _167
REMARK   68  A    between atoms: _172  and  _174
REMARK   69  A    between atoms: _174  and  _175
REMARK   70  A    between atoms: _174  and  _177
REMARK   71  A    between atoms: _177  and  _178
REMARK   72  A    between atoms: _178  and  _179
REMARK   73  A    between atoms: _182  and  _184
REMARK   74  A    between atoms: _184  and  _185
REMARK   75  A    between atoms: _184  and  _187
REMARK   76  A    between atoms: _187  and  _188
REMARK   77  A    between atoms: _193  and  _195
REMARK   78  A    between atoms: _195  and  _196
REMARK   79  A    between atoms: _195  and  _198
REMARK   80  A    between atoms: _198  and  _199
REMARK   81  A    between atoms: _202  and  _204
REMARK   82  A    between atoms: _204  and  _205
REMARK   83  A    between atoms: _204  and  _207
REMARK   84  A    between atoms: _207  and  _208
REMARK   85  A    between atoms: _213  and  _214
REMARK   86  A    between atoms: _216  and  _218
REMARK   87  A    between atoms: _218  and  _219
REMARK   88  A    between atoms: _218  and  _221
REMARK   89  A    between atoms: _221  and  _222
REMARK   90  A    between atoms: _222  and  _223
REMARK   91  A    between atoms: _228  and  _230
REMARK   92  A    between atoms: _230  and  _231
REMARK   93  A    between atoms: _230  and  _233
REMARK   94  A    between atoms: _233  and  _234
REMARK   95  A    between atoms: _239  and  _241
REMARK   96  A    between atoms: _241  and  _242
REMARK   97  A    between atoms: _241  and  _244
REMARK   98  A    between atoms: _244  and  _245
REMARK   99  A    between atoms: _248  and  _250
REMARK  100  A    between atoms: _250  and  _251
REMARK  101  A    between atoms: _250  and  _253
REMARK  102  A    between atoms: _253  and  _254
REMARK  103  A    between atoms: _254  and  _255
REMARK  104  A    between atoms: _258  and  _260
REMARK  105  A    between atoms: _260  and  _261
REMARK  106  A    between atoms: _260  and  _263
REMARK  107  A    between atoms: _263  and  _264
REMARK  108  A    between atoms: _267  and  _269
REMARK  109  A    between atoms: _269  and  _270
REMARK  110  A    between atoms: _269  and  _272
REMARK  111  A    between atoms: _272  and  _273
REMARK  112  A    between atoms: _283  and  _285
REMARK  113  A    between atoms: _285  and  _286
REMARK  114  A    between atoms: _288  and  _290
REMARK  115  A    between atoms: _290  and  _291
REMARK  116  A    between atoms: _290  and  _293
REMARK  117  A    between atoms: _293  and  _294
REMARK  118  A    between atoms: _297  and  _299
REMARK  119  A    between atoms: _299  and  _300
REMARK  120  A    between atoms: _299  and  _302
REMARK  121  A    between atoms: _302  and  _303
REMARK  122  A    between atoms: _305  and  _307
REMARK  123  A    between atoms: _307  and  _308
REMARK  124  A    between atoms: _307  and  _310
REMARK  125  A    between atoms: _310  and  _311
REMARK  126  A    between atoms: _321  and  _323
REMARK  127  A    between atoms: _323  and  _324
REMARK  128  A    between atoms: _323  and  _326
REMARK  129  A    between atoms: _326  and  _327
REMARK  130  A    between atoms: _327  and  _328
REMARK  131  A    between atoms: _328  and  _329
REMARK                            x       y       z     vdW  Elec       q    Type
REMARK                         _______ _______ _______ _____ _____    ______ ____
ROOT
ATOM      1  O   HOH     1       3.223   9.118  17.577  0.00  0.00    +0.000 OA
ENDROOT
TORSDOF 0
REMARK  Name = ../refined-set-2016/1v0k/1v0k_pocket.pdb
REMARK  131 active torsions:
REMARK  status: ('A' for Active; 'I' for Inactive)
REMARK    1  A    between atoms: _1  and  _3
REMARK    2  A    between atoms: _3  and  _4
REMARK    3  A    between atoms: _7  and  _9
REMARK    4  A    between atoms: _9  and  _10
REMARK    5  A    between atoms: _13  and  _15
REMARK    6  A    between atoms: _15  and  _16
REMARK    7  A    between atoms: _15  and  _18
REMARK    8  A    between atoms: _18  and  _19
REMARK    9  A    between atoms: _19  and  _20
REMARK   10  A    between atoms: _20  and  _21
REMARK   11  A    between atoms: _30  and  _32
REMARK   12  A    between atoms: _32  and  _33
REMARK   13  A    between atoms: _32  and  _35
REMARK   14  A    between atoms: _35  and  _36
REMARK   15  A    between atoms: _39  and  _41
REMARK   16  A    between atoms: _41  and  _42
REMARK   17  A    between atoms: _45  and  _47
REMARK   18  A    between atoms: _47  and  _48
REMARK   19  A    between atoms: _47  and  _50
REMARK   20  A    between atoms: _50  and  _51
REMARK   21  A    between atoms: _51  and  _52
REMARK   22  A    between atoms: _55  and  _57
REMARK   23  A    between atoms: _57  and  _58
REMARK   24  A    between atoms: _57  and  _60
REMARK   25  A    between atoms: _60  and  _61
REMARK   26  A    between atoms: _66  and  _68
REMARK   27  A    between atoms: _68  and  _69
REMARK   28  A    between atoms: _68  and  _71
REMARK   29  A    between atoms: _71  and  _72
REMARK   30  A    between atoms: _72  and  _73
REMARK   31  A    between atoms: _73  and  _74
REMARK   32  A    between atoms: _74  and  _75
REMARK   33  A    between atoms: _79  and  _81
REMARK   34  A    between atoms: _81  and  _82
REMARK   35  A    between atoms: _81  and  _84
REMARK   36  A    between atoms: _84  and  _85
REMARK   37  A    between atoms: _85  and  _86
REMARK   38  A    between atoms: _86  and  _87
REMARK   39  A    between atoms: _96  and  _98
REMARK   40  A    between atoms: _98  and  _99
REMARK   41  A    between atoms: _98  and  _101
REMARK   42  A    between atoms: _101  and  _102
REMARK   43  A    between atoms: _107  and  _109
REMARK   44  A    between atoms: _109  and  _110
REMARK   45  A    between atoms: _109  and  _112
REMARK   46  A    between atoms: _112  and  _113
REMARK   47  A    between atoms: _116  and  _118
REMARK   48  A    between atoms: _118  and  _119
REMARK   49  A    between atoms: _118  and  _121
REMARK   50  A    between atoms: _121  and  _122
REMARK   51  A    between atoms: _132  and  _134
REMARK   52  A    between atoms: _134  and  _135
REMARK   53  A    between atoms: _134  and  _137
REMARK   54  A    between atoms: _137  and  _138
REMARK   55  A    between atoms: _140  and  _142
REMARK   56  A    between atoms: _142  and  _143
REMARK   57  A    between atoms: _142  and  _145
REMARK   58  A    between atoms: _145  and  _146
REMARK   59  A    between atoms: _146  and  _147
REMARK   60  A    between atoms: _152  and  _154
REMARK   61  A    between atoms: _154  and  _155
REMARK   62  A    between atoms: _154  and  _157
REMARK   63  A    between atoms: _157  and  _158
REMARK   64  A    between atoms: _161  and  _163
REMARK   65  A    between atoms: _163  and  _164
REMARK   66  A    between atoms: _163  and  _166
REMARK   67  A    between atoms: _166  and  _167
REMARK   68  A    between atoms: _172  and  _174
REMARK   69  A    between atoms: _174  and  _175
REMARK   70  A    between atoms: _174  and  _177
REMARK   71  A    between atoms: _177  and  _178
REMARK   72  A    between atoms: _178  and  _179
REMARK   73  A    between atoms: _182  and  _184
REMARK   74  A    between atoms: _184  and  _185
REMARK   75  A    between atoms: _184  and  _187
REMARK   76  A    between atoms: _187  and  _188
REMARK   77  A    between atoms: _193  and  _195
REMARK   78  A    between atoms: _195  and  _196
REMARK   79  A    between atoms: _195  and  _198
REMARK   80  A    between atoms: _198  and  _199
REMARK   81  A    between atoms: _202  and  _204
REMARK   82  A    between atoms: _204  and  _205
REMARK   83  A    between atoms: _204  and  _207
REMARK   84  A    between atoms: _207  and  _208
REMARK   85  A    between atoms: _213  and  _214
REMARK   86  A    between atoms: _216  and  _218
REMARK   87  A    between atoms: _218  and  _219
REMARK   88  A    between atoms: _218  and  _221
REMARK   89  A    between atoms: _221  and  _222
REMARK   90  A    between atoms: _222  and  _223
REMARK   91  A    between atoms: _228  and  _230
REMARK   92  A    between atoms: _230  and  _231
REMARK   93  A    between atoms: _230  and  _233
REMARK   94  A    between atoms: _233  and  _234
REMARK   95  A    between atoms: _239  and  _241
REMARK   96  A    between atoms: _241  and  _242
REMARK   97  A    between atoms: _241  and  _244
REMARK   98  A    between atoms: _244  and  _245
REMARK   99  A    between atoms: _248  and  _250
REMARK  100  A    between atoms: _250  and  _251
REMARK  101  A    between atoms: _250  and  _253
REMARK  102  A    between atoms: _253  and  _254
REMARK  103  A    between atoms: _254  and  _255
REMARK  104  A    between atoms: _258  and  _260
REMARK  105  A    between atoms: _260  and  _261
REMARK  106  A    between atoms: _260  and  _263
REMARK  107  A    between atoms: _263  and  _264
REMARK  108  A    between atoms: _267  and  _269
REMARK  109  A    between atoms: _269  and  _270
REMARK  110  A    between atoms: _269  and  _272
REMARK  111  A    between atoms: _272  and  _273
REMARK  112  A    between atoms: _283  and  _285
REMARK  113  A    between atoms: _285  and  _286
REMARK  114  A    between atoms: _288  and  _290
REMARK  115  A    between atoms: _290  and  _291
REMARK  116  A    between atoms: _290  and  _293
REMARK  117  A    between atoms: _293  and  _294
REMARK  118  A    between atoms: _297  and  _299
REMARK  119  A    between atoms: _299  and  _300
REMARK  120  A    between atoms: _299  and  _302
REMARK  121  A    between atoms: _302  and  _303
REMARK  122  A    between atoms: _305  and  _307
REMARK  123  A    between atoms: _307  and  _308
REMARK  124  A    between atoms: _307  and  _310
REMARK  125  A    between atoms: _310  and  _311
REMARK  126  A    between atoms: _321  and  _323
REMARK  127  A    between atoms: _323  and  _324
REMARK  128  A    between atoms: _323  and  _326
REMARK  129  A    between atoms: _326  and  _327
REMARK  130  A    between atoms: _327  and  _328
REMARK  131  A    between atoms: _328  and  _329
REMARK                            x       y       z     vdW  Elec       q    Type
REMARK                         _______ _______ _______ _____ _____    ______ ____
ROOT
ATOM      1  O   HOH     1       2.916  14.197  13.882  0.00  0.00    +0.000 OA
ENDROOT
TORSDOF 0
REMARK  Name = ../refined-set-2016/1v0k/1v0k_pocket.pdb
REMARK  131 active torsions:
REMARK  status: ('A' for Active; 'I' for Inactive)
REMARK    1  A    between atoms: _1  and  _3
REMARK    2  A    between atoms: _3  and  _4
REMARK    3  A    between atoms: _7  and  _9
REMARK    4  A    between atoms: _9  and  _10
REMARK    5  A    between atoms: _13  and  _15
REMARK    6  A    between atoms: _15  and  _16
REMARK    7  A    between atoms: _15  and  _18
REMARK    8  A    between atoms: _18  and  _19
REMARK    9  A    between atoms: _19  and  _20
REMARK   10  A    between atoms: _20  and  _21
REMARK   11  A    between atoms: _30  and  _32
REMARK   12  A    between atoms: _32  and  _33
REMARK   13  A    between atoms: _32  and  _35
REMARK   14  A    between atoms: _35  and  _36
REMARK   15  A    between atoms: _39  and  _41
REMARK   16  A    between atoms: _41  and  _42
REMARK   17  A    between atoms: _45  and  _47
REMARK   18  A    between atoms: _47  and  _48
REMARK   19  A    between atoms: _47  and  _50
REMARK   20  A    between atoms: _50  and  _51
REMARK   21  A    between atoms: _51  and  _52
REMARK   22  A    between atoms: _55  and  _57
REMARK   23  A    between atoms: _57  and  _58
REMARK   24  A    between atoms: _57  and  _60
REMARK   25  A    between atoms: _60  and  _61
REMARK   26  A    between atoms: _66  and  _68
REMARK   27  A    between atoms: _68  and  _69
REMARK   28  A    between atoms: _68  and  _71
REMARK   29  A    between atoms: _71  and  _72
REMARK   30  A    between atoms: _72  and  _73
REMARK   31  A    between atoms: _73  and  _74
REMARK   32  A    between atoms: _74  and  _75
REMARK   33  A    between atoms: _79  and  _81
REMARK   34  A    between atoms: _81  and  _82
REMARK   35  A    between atoms: _81  and  _84
REMARK   36  A    between atoms: _84  and  _85
REMARK   37  A    between atoms: _85  and  _86
REMARK   38  A    between atoms: _86  and  _87
REMARK   39  A    between atoms: _96  and  _98
REMARK   40  A    between atoms: _98  and  _99
REMARK   41  A    between atoms: _98  and  _101
REMARK   42  A    between atoms: _101  and  _102
REMARK   43  A    between atoms: _107  and  _109
REMARK   44  A    between atoms: _109  and  _110
REMARK   45  A    between atoms: _109  and  _112
REMARK   46  A    between atoms: _112  and  _113
REMARK   47  A    between atoms: _116  and  _118
REMARK   48  A    between atoms: _118  and  _119
REMARK   49  A    between atoms: _118  and  _121
REMARK   50  A    between atoms: _121  and  _122
REMARK   51  A    between atoms: _132  and  _134
REMARK   52  A    between atoms: _134  and  _135
REMARK   53  A    between atoms: _134  and  _137
REMARK   54  A    between atoms: _137  and  _138
REMARK   55  A    between atoms: _140  and  _142
REMARK   56  A    between atoms: _142  and  _143
REMARK   57  A    between atoms: _142  and  _145
REMARK   58  A    between atoms: _145  and  _146
REMARK   59  A    between atoms: _146  and  _147
REMARK   60  A    between atoms: _152  and  _154
REMARK   61  A    between atoms: _154  and  _155
REMARK   62  A    between atoms: _154  and  _157
REMARK   63  A    between atoms: _157  and  _158
REMARK   64  A    between atoms: _161  and  _163
REMARK   65  A    between atoms: _163  and  _164
REMARK   66  A    between atoms: _163  and  _166
REMARK   67  A    between atoms: _166  and  _167
REMARK   68  A    between atoms: _172  and  _174
REMARK   69  A    between atoms: _174  and  _175
REMARK   70  A    between atoms: _174  and  _177
REMARK   71  A    between atoms: _177  and  _178
REMARK   72  A    between atoms: _178  and  _179
REMARK   73  A    between atoms: _182  and  _184
REMARK   74  A    between atoms: _184  and  _185
REMARK   75  A    between atoms: _184  and  _187
REMARK   76  A    between atoms: _187  and  _188
REMARK   77  A    between atoms: _193  and  _195
REMARK   78  A    between atoms: _195  and  _196
REMARK   79  A    between atoms: _195  and  _198
REMARK   80  A    between atoms: _198  and  _199
REMARK   81  A    between atoms: _202  and  _204
REMARK   82  A    between atoms: _204  and  _205
REMARK   83  A    between atoms: _204  and  _207
REMARK   84  A    between atoms: _207  and  _208
REMARK   85  A    between atoms: _213  and  _214
REMARK   86  A    between atoms: _216  and  _218
REMARK   87  A    between atoms: _218  and  _219
REMARK   88  A    between atoms: _218  and  _221
REMARK   89  A    between atoms: _221  and  _222
REMARK   90  A    between atoms: _222  and  _223
REMARK   91  A    between atoms: _228  and  _230
REMARK   92  A    between atoms: _230  and  _231
REMARK   93  A    between atoms: _230  and  _233
REMARK   94  A    between atoms: _233  and  _234
REMARK   95  A    between atoms: _239  and  _241
REMARK   96  A    between atoms: _241  and  _242
REMARK   97  A    between atoms: _241  and  _244
REMARK   98  A    between atoms: _244  and  _245
REMARK   99  A    between atoms: _248  and  _250
REMARK  100  A    between atoms: _250  and  _251
REMARK  101  A    between atoms: _250  and  _253
REMARK  102  A    between atoms: _253  and  _254
REMARK  103  A    between atoms: _254  and  _255
REMARK  104  A    between atoms: _258  and  _260
REMARK  105  A    between atoms: _260  and  _261
REMARK  106  A    between atoms: _260  and  _263
REMARK  107  A    between atoms: _263  and  _264
REMARK  108  A    between atoms: _267  and  _269
REMARK  109  A    between atoms: _269  and  _270
REMARK  110  A    between atoms: _269  and  _272
REMARK  111  A    between atoms: _272  and  _273
REMARK  112  A    between atoms: _283  and  _285
REMARK  113  A    between atoms: _285  and  _286
REMARK  114  A    between atoms: _288  and  _290
REMARK  115  A    between atoms: _290  and  _291
REMARK  116  A    between atoms: _290  and  _293
REMARK  117  A    between atoms: _293  and  _294
REMARK  118  A    between atoms: _297  and  _299
REMARK  119  A    between atoms: _299  and  _300
REMARK  120  A    between atoms: _299  and  _302
REMARK  121  A    between atoms: _302  and  _303
REMARK  122  A    between atoms: _305  and  _307
REMARK  123  A    between atoms: _307  and  _308
REMARK  124  A    between atoms: _307  and  _310
REMARK  125  A    between atoms: _310  and  _311
REMARK  126  A    between atoms: _321  and  _323
REMARK  127  A    between atoms: _323  and  _324
REMARK  128  A    between atoms: _323  and  _326
REMARK  129  A    between atoms: _326  and  _327
REMARK  130  A    between atoms: _327  and  _328
REMARK  131  A    between atoms: _328  and  _329
REMARK                            x       y       z     vdW  Elec       q    Type
REMARK                         _______ _______ _______ _____ _____    ______ ____
ROOT
ATOM      1  O   HOH     1       2.900  12.392  14.244  0.00  0.00    +0.000 OA
ENDROOT
TORSDOF 0
REMARK  Name = ../refined-set-2016/1v0k/1v0k_pocket.pdb
REMARK  131 active torsions:
REMARK  status: ('A' for Active; 'I' for Inactive)
REMARK    1  A    between atoms: _1  and  _3
REMARK    2  A    between atoms: _3  and  _4
REMARK    3  A    between atoms: _7  and  _9
REMARK    4  A    between atoms: _9  and  _10
REMARK    5  A    between atoms: _13  and  _15
REMARK    6  A    between atoms: _15  and  _16
REMARK    7  A    between atoms: _15  and  _18
REMARK    8  A    between atoms: _18  and  _19
REMARK    9  A    between atoms: _19  and  _20
REMARK   10  A    between atoms: _20  and  _21
REMARK   11  A    between atoms: _30  and  _32
REMARK   12  A    between atoms: _32  and  _33
REMARK   13  A    between atoms: _32  and  _35
REMARK   14  A    between atoms: _35  and  _36
REMARK   15  A    between atoms: _39  and  _41
REMARK   16  A    between atoms: _41  and  _42
REMARK   17  A    between atoms: _45  and  _47
REMARK   18  A    between atoms: _47  and  _48
REMARK   19  A    between atoms: _47  and  _50
REMARK   20  A    between atoms: _50  and  _51
REMARK   21  A    between atoms: _51  and  _52
REMARK   22  A    between atoms: _55  and  _57
REMARK   23  A    between atoms: _57  and  _58
REMARK   24  A    between atoms: _57  and  _60
REMARK   25  A    between atoms: _60  and  _61
REMARK   26  A    between atoms: _66  and  _68
REMARK   27  A    between atoms: _68  and  _69
REMARK   28  A    between atoms: _68  and  _71
REMARK   29  A    between atoms: _71  and  _72
REMARK   30  A    between atoms: _72  and  _73
REMARK   31  A    between atoms: _73  and  _74
REMARK   32  A    between atoms: _74  and  _75
REMARK   33  A    between atoms: _79  and  _81
REMARK   34  A    between atoms: _81  and  _82
REMARK   35  A    between atoms: _81  and  _84
REMARK   36  A    between atoms: _84  and  _85
REMARK   37  A    between atoms: _85  and  _86
REMARK   38  A    between atoms: _86  and  _87
REMARK   39  A    between atoms: _96  and  _98
REMARK   40  A    between atoms: _98  and  _99
REMARK   41  A    between atoms: _98  and  _101
REMARK   42  A    between atoms: _101  and  _102
REMARK   43  A    between atoms: _107  and  _109
REMARK   44  A    between atoms: _109  and  _110
REMARK   45  A    between atoms: _109  and  _112
REMARK   46  A    between atoms: _112  and  _113
REMARK   47  A    between atoms: _116  and  _118
REMARK   48  A    between atoms: _118  and  _119
REMARK   49  A    between atoms: _118  and  _121
REMARK   50  A    between atoms: _121  and  _122
REMARK   51  A    between atoms: _132  and  _134
REMARK   52  A    between atoms: _134  and  _135
REMARK   53  A    between atoms: _134  and  _137
REMARK   54  A    between atoms: _137  and  _138
REMARK   55  A    between atoms: _140  and  _142
REMARK   56  A    between atoms: _142  and  _143
REMARK   57  A    between atoms: _142  and  _145
REMARK   58  A    between atoms: _145  and  _146
REMARK   59  A    between atoms: _146  and  _147
REMARK   60  A    between atoms: _152  and  _154
REMARK   61  A    between atoms: _154  and  _155
REMARK   62  A    between atoms: _154  and  _157
REMARK   63  A    between atoms: _157  and  _158
REMARK   64  A    between atoms: _161  and  _163
REMARK   65  A    between atoms: _163  and  _164
REMARK   66  A    between atoms: _163  and  _166
REMARK   67  A    between atoms: _166  and  _167
REMARK   68  A    between atoms: _172  and  _174
REMARK   69  A    between atoms: _174  and  _175
REMARK   70  A    between atoms: _174  and  _177
REMARK   71  A    between atoms: _177  and  _178
REMARK   72  A    between atoms: _178  and  _179
REMARK   73  A    between atoms: _182  and  _184
REMARK   74  A    between atoms: _184  and  _185
REMARK   75  A    between atoms: _184  and  _187
REMARK   76  A    between atoms: _187  and  _188
REMARK   77  A    between atoms: _193  and  _195
REMARK   78  A    between atoms: _195  and  _196
REMARK   79  A    between atoms: _195  and  _198
REMARK   80  A    between atoms: _198  and  _199
REMARK   81  A    between atoms: _202  and  _204
REMARK   82  A    between atoms: _204  and  _205
REMARK   83  A    between atoms: _204  and  _207
REMARK   84  A    between atoms: _207  and  _208
REMARK   85  A    between atoms: _213  and  _214
REMARK   86  A    between atoms: _216  and  _218
REMARK   87  A    between atoms: _218  and  _219
REMARK   88  A    between atoms: _218  and  _221
REMARK   89  A    between atoms: _221  and  _222
REMARK   90  A    between atoms: _222  and  _223
REMARK   91  A    between atoms: _228  and  _230
REMARK   92  A    between atoms: _230  and  _231
REMARK   93  A    between atoms: _230  and  _233
REMARK   94  A    between atoms: _233  and  _234
REMARK   95  A    between atoms: _239  and  _241
REMARK   96  A    between atoms: _241  and  _242
REMARK   97  A    between atoms: _241  and  _244
REMARK   98  A    between atoms: _244  and  _245
REMARK   99  A    between atoms: _248  and  _250
REMARK  100  A    between atoms: _250  and  _251
REMARK  101  A    between atoms: _250  and  _253
REMARK  102  A    between atoms: _253  and  _254
REMARK  103  A    between atoms: _254  and  _255
REMARK  104  A    between atoms: _258  and  _260
REMARK  105  A    between atoms: _260  and  _261
REMARK  106  A    between atoms: _260  and  _263
REMARK  107  A    between atoms: _263  and  _264
REMARK  108  A    between atoms: _267  and  _269
REMARK  109  A    between atoms: _269  and  _270
REMARK  110  A    between atoms: _269  and  _272
REMARK  111  A    between atoms: _272  and  _273
REMARK  112  A    between atoms: _283  and  _285
REMARK  113  A    between atoms: _285  and  _286
REMARK  114  A    between atoms: _288  and  _290
REMARK  115  A    between atoms: _290  and  _291
REMARK  116  A    between atoms: _290  and  _293
REMARK  117  A    between atoms: _293  and  _294
REMARK  118  A    between atoms: _297  and  _299
REMARK  119  A    between atoms: _299  and  _300
REMARK  120  A    between atoms: _299  and  _302
REMARK  121  A    between atoms: _302  and  _303
REMARK  122  A    between atoms: _305  and  _307
REMARK  123  A    between atoms: _307  and  _308
REMARK  124  A    between atoms: _307  and  _310
REMARK  125  A    between atoms: _310  and  _311
REMARK  126  A    between atoms: _321  and  _323
REMARK  127  A    between atoms: _323  and  _324
REMARK  128  A    between atoms: _323  and  _326
REMARK  129  A    between atoms: _326  and  _327
REMARK  130  A    between atoms: _327  and  _328
REMARK  131  A    between atoms: _328  and  _329
REMARK                            x       y       z     vdW  Elec       q    Type
REMARK                         _______ _______ _______ _____ _____    ______ ____
ROOT
ATOM      1  O   HOH     1       1.486  15.442  17.654  0.00  0.00    +0.000 OA
ENDROOT
TORSDOF 0
REMARK  Name = ../refined-set-2016/1v0k/1v0k_pocket.pdb
REMARK  131 active torsions:
REMARK  status: ('A' for Active; 'I' for Inactive)
REMARK    1  A    between atoms: _1  and  _3
REMARK    2  A    between atoms: _3  and  _4
REMARK    3  A    between atoms: _7  and  _9
REMARK    4  A    between atoms: _9  and  _10
REMARK    5  A    between atoms: _13  and  _15
REMARK    6  A    between atoms: _15  and  _16
REMARK    7  A    between atoms: _15  and  _18
REMARK    8  A    between atoms: _18  and  _19
REMARK    9  A    between atoms: _19  and  _20
REMARK   10  A    between atoms: _20  and  _21
REMARK   11  A    between atoms: _30  and  _32
REMARK   12  A    between atoms: _32  and  _33
REMARK   13  A    between atoms: _32  and  _35
REMARK   14  A    between atoms: _35  and  _36
REMARK   15  A    between atoms: _39  and  _41
REMARK   16  A    between atoms: _41  and  _42
REMARK   17  A    between atoms: _45  and  _47
REMARK   18  A    between atoms: _47  and  _48
REMARK   19  A    between atoms: _47  and  _50
REMARK   20  A    between atoms: _50  and  _51
REMARK   21  A    between atoms: _51  and  _52
REMARK   22  A    between atoms: _55  and  _57
REMARK   23  A    between atoms: _57  and  _58
REMARK   24  A    between atoms: _57  and  _60
REMARK   25  A    between atoms: _60  and  _61
REMARK   26  A    between atoms: _66  and  _68
REMARK   27  A    between atoms: _68  and  _69
REMARK   28  A    between atoms: _68  and  _71
REMARK   29  A    between atoms: _71  and  _72
REMARK   30  A    between atoms: _72  and  _73
REMARK   31  A    between atoms: _73  and  _74
REMARK   32  A    between atoms: _74  and  _75
REMARK   33  A    between atoms: _79  and  _81
REMARK   34  A    between atoms: _81  and  _82
REMARK   35  A    between atoms: _81  and  _84
REMARK   36  A    between atoms: _84  and  _85
REMARK   37  A    between atoms: _85  and  _86
REMARK   38  A    between atoms: _86  and  _87
REMARK   39  A    between atoms: _96  and  _98
REMARK   40  A    between atoms: _98  and  _99
REMARK   41  A    between atoms: _98  and  _101
REMARK   42  A    between atoms: _101  and  _102
REMARK   43  A    between atoms: _107  and  _109
REMARK   44  A    between atoms: _109  and  _110
REMARK   45  A    between atoms: _109  and  _112
REMARK   46  A    between atoms: _112  and  _113
REMARK   47  A    between atoms: _116  and  _118
REMARK   48  A    between atoms: _118  and  _119
REMARK   49  A    between atoms: _118  and  _121
REMARK   50  A    between atoms: _121  and  _122
REMARK   51  A    between atoms: _132  and  _134
REMARK   52  A    between atoms: _134  and  _135
REMARK   53  A    between atoms: _134  and  _137
REMARK   54  A    between atoms: _137  and  _138
REMARK   55  A    between atoms: _140  and  _142
REMARK   56  A    between atoms: _142  and  _143
REMARK   57  A    between atoms: _142  and  _145
REMARK   58  A    between atoms: _145  and  _146
REMARK   59  A    between atoms: _146  and  _147
REMARK   60  A    between atoms: _152  and  _154
REMARK   61  A    between atoms: _154  and  _155
REMARK   62  A    between atoms: _154  and  _157
REMARK   63  A    between atoms: _157  and  _158
REMARK   64  A    between atoms: _161  and  _163
REMARK   65  A    between atoms: _163  and  _164
REMARK   66  A    between atoms: _163  and  _166
REMARK   67  A    between atoms: _166  and  _167
REMARK   68  A    between atoms: _172  and  _174
REMARK   69  A    between atoms: _174  and  _175
REMARK   70  A    between atoms: _174  and  _177
REMARK   71  A    between atoms: _177  and  _178
REMARK   72  A    between atoms: _178  and  _179
REMARK   73  A    between atoms: _182  and  _184
REMARK   74  A    between atoms: _184  and  _185
REMARK   75  A    between atoms: _184  and  _187
REMARK   76  A    between atoms: _187  and  _188
REMARK   77  A    between atoms: _193  and  _195
REMARK   78  A    between atoms: _195  and  _196
REMARK   79  A    between atoms: _195  and  _198
REMARK   80  A    between atoms: _198  and  _199
REMARK   81  A    between atoms: _202  and  _204
REMARK   82  A    between atoms: _204  and  _205
REMARK   83  A    between atoms: _204  and  _207
REMARK   84  A    between atoms: _207  and  _208
REMARK   85  A    between atoms: _213  and  _214
REMARK   86  A    between atoms: _216  and  _218
REMARK   87  A    between atoms: _218  and  _219
REMARK   88  A    between atoms: _218  and  _221
REMARK   89  A    between atoms: _221  and  _222
REMARK   90  A    between atoms: _222  and  _223
REMARK   91  A    between atoms: _228  and  _230
REMARK   92  A    between atoms: _230  and  _231
REMARK   93  A    between atoms: _230  and  _233
REMARK   94  A    between atoms: _233  and  _234
REMARK   95  A    between atoms: _239  and  _241
REMARK   96  A    between atoms: _241  and  _242
REMARK   97  A    between atoms: _241  and  _244
REMARK   98  A    between atoms: _244  and  _245
REMARK   99  A    between atoms: _248  and  _250
REMARK  100  A    between atoms: _250  and  _251
REMARK  101  A    between atoms: _250  and  _253
REMARK  102  A    between atoms: _253  and  _254
REMARK  103  A    between atoms: _254  and  _255
REMARK  104  A    between atoms: _258  and  _260
REMARK  105  A    between atoms: _260  and  _261
REMARK  106  A    between atoms: _260  and  _263
REMARK  107  A    between atoms: _263  and  _264
REMARK  108  A    between atoms: _267  and  _269
REMARK  109  A    between atoms: _269  and  _270
REMARK  110  A    between atoms: _269  and  _272
REMARK  111  A    between atoms: _272  and  _273
REMARK  112  A    between atoms: _283  and  _285
REMARK  113  A    between atoms: _285  and  _286
REMARK  114  A    between atoms: _288  and  _290
REMARK  115  A    between atoms: _290  and  _291
REMARK  116  A    between atoms: _290  and  _293
REMARK  117  A    between atoms: _293  and  _294
REMARK  118  A    between atoms: _297  and  _299
REMARK  119  A    between atoms: _299  and  _300
REMARK  120  A    between atoms: _299  and  _302
REMARK  121  A    between atoms: _302  and  _303
REMARK  122  A    between atoms: _305  and  _307
REMARK  123  A    between atoms: _307  and  _308
REMARK  124  A    between atoms: _307  and  _310
REMARK  125  A    between atoms: _310  and  _311
REMARK  126  A    between atoms: _321  and  _323
REMARK  127  A    between atoms: _323  and  _324
REMARK  128  A    between atoms: _323  and  _326
REMARK  129  A    between atoms: _326  and  _327
REMARK  130  A    between atoms: _327  and  _328
REMARK  131  A    between atoms: _328  and  _329
REMARK                            x       y       z     vdW  Elec       q    Type
REMARK                         _______ _______ _______ _____ _____    ______ ____
ROOT
ATOM      1  O   HOH     1       5.067  13.283  15.440  0.00  0.00    +0.000 OA
ENDROOT
TORSDOF 0
REMARK  Name = ../refined-set-2016/1v0k/1v0k_pocket.pdb
REMARK  131 active torsions:
REMARK  status: ('A' for Active; 'I' for Inactive)
REMARK    1  A    between atoms: _1  and  _3
REMARK    2  A    between atoms: _3  and  _4
REMARK    3  A    between atoms: _7  and  _9
REMARK    4  A    between atoms: _9  and  _10
REMARK    5  A    between atoms: _13  and  _15
REMARK    6  A    between atoms: _15  and  _16
REMARK    7  A    between atoms: _15  and  _18
REMARK    8  A    between atoms: _18  and  _19
REMARK    9  A    between atoms: _19  and  _20
REMARK   10  A    between atoms: _20  and  _21
REMARK   11  A    between atoms: _30  and  _32
REMARK   12  A    between atoms: _32  and  _33
REMARK   13  A    between atoms: _32  and  _35
REMARK   14  A    between atoms: _35  and  _36
REMARK   15  A    between atoms: _39  and  _41
REMARK   16  A    between atoms: _41  and  _42
REMARK   17  A    between atoms: _45  and  _47
REMARK   18  A    between atoms: _47  and  _48
REMARK   19  A    between atoms: _47  and  _50
REMARK   20  A    between atoms: _50  and  _51
REMARK   21  A    between atoms: _51  and  _52
REMARK   22  A    between atoms: _55  and  _57
REMARK   23  A    between atoms: _57  and  _58
REMARK   24  A    between atoms: _57  and  _60
REMARK   25  A    between atoms: _60  and  _61
REMARK   26  A    between atoms: _66  and  _68
REMARK   27  A    between atoms: _68  and  _69
REMARK   28  A    between atoms: _68  and  _71
REMARK   29  A    between atoms: _71  and  _72
REMARK   30  A    between atoms: _72  and  _73
REMARK   31  A    between atoms: _73  and  _74
REMARK   32  A    between atoms: _74  and  _75
REMARK   33  A    between atoms: _79  and  _81
REMARK   34  A    between atoms: _81  and  _82
REMARK   35  A    between atoms: _81  and  _84
REMARK   36  A    between atoms: _84  and  _85
REMARK   37  A    between atoms: _85  and  _86
REMARK   38  A    between atoms: _86  and  _87
REMARK   39  A    between atoms: _96  and  _98
REMARK   40  A    between atoms: _98  and  _99
REMARK   41  A    between atoms: _98  and  _101
REMARK   42  A    between atoms: _101  and  _102
REMARK   43  A    between atoms: _107  and  _109
REMARK   44  A    between atoms: _109  and  _110
REMARK   45  A    between atoms: _109  and  _112
REMARK   46  A    between atoms: _112  and  _113
REMARK   47  A    between atoms: _116  and  _118
REMARK   48  A    between atoms: _118  and  _119
REMARK   49  A    between atoms: _118  and  _121
REMARK   50  A    between atoms: _121  and  _122
REMARK   51  A    between atoms: _132  and  _134
REMARK   52  A    between atoms: _134  and  _135
REMARK   53  A    between atoms: _134  and  _137
REMARK   54  A    between atoms: _137  and  _138
REMARK   55  A    between atoms: _140  and  _142
REMARK   56  A    between atoms: _142  and  _143
REMARK   57  A    between atoms: _142  and  _145
REMARK   58  A    between atoms: _145  and  _146
REMARK   59  A    between atoms: _146  and  _147
REMARK   60  A    between atoms: _152  and  _154
REMARK   61  A    between atoms: _154  and  _155
REMARK   62  A    between atoms: _154  and  _157
REMARK   63  A    between atoms: _157  and  _158
REMARK   64  A    between atoms: _161  and  _163
REMARK   65  A    between atoms: _163  and  _164
REMARK   66  A    between atoms: _163  and  _166
REMARK   67  A    between atoms: _166  and  _167
REMARK   68  A    between atoms: _172  and  _174
REMARK   69  A    between atoms: _174  and  _175
REMARK   70  A    between atoms: _174  and  _177
REMARK   71  A    between atoms: _177  and  _178
REMARK   72  A    between atoms: _178  and  _179
REMARK   73  A    between atoms: _182  and  _184
REMARK   74  A    between atoms: _184  and  _185
REMARK   75  A    between atoms: _184  and  _187
REMARK   76  A    between atoms: _187  and  _188
REMARK   77  A    between atoms: _193  and  _195
REMARK   78  A    between atoms: _195  and  _196
REMARK   79  A    between atoms: _195  and  _198
REMARK   80  A    between atoms: _198  and  _199
REMARK   81  A    between atoms: _202  and  _204
REMARK   82  A    between atoms: _204  and  _205
REMARK   83  A    between atoms: _204  and  _207
REMARK   84  A    between atoms: _207  and  _208
REMARK   85  A    between atoms: _213  and  _214
REMARK   86  A    between atoms: _216  and  _218
REMARK   87  A    between atoms: _218  and  _219
REMARK   88  A    between atoms: _218  and  _221
REMARK   89  A    between atoms: _221  and  _222
REMARK   90  A    between atoms: _222  and  _223
REMARK   91  A    between atoms: _228  and  _230
REMARK   92  A    between atoms: _230  and  _231
REMARK   93  A    between atoms: _230  and  _233
REMARK   94  A    between atoms: _233  and  _234
REMARK   95  A    between atoms: _239  and  _241
REMARK   96  A    between atoms: _241  and  _242
REMARK   97  A    between atoms: _241  and  _244
REMARK   98  A    between atoms: _244  and  _245
REMARK   99  A    between atoms: _248  and  _250
REMARK  100  A    between atoms: _250  and  _251
REMARK  101  A    between atoms: _250  and  _253
REMARK  102  A    between atoms: _253  and  _254
REMARK  103  A    between atoms: _254  and  _255
REMARK  104  A    between atoms: _258  and  _260
REMARK  105  A    between atoms: _260  and  _261
REMARK  106  A    between atoms: _260  and  _263
REMARK  107  A    between atoms: _263  and  _264
REMARK  108  A    between atoms: _267  and  _269
REMARK  109  A    between atoms: _269  and  _270
REMARK  110  A    between atoms: _269  and  _272
REMARK  111  A    between atoms: _272  and  _273
REMARK  112  A    between atoms: _283  and  _285
REMARK  113  A    between atoms: _285  and  _286
REMARK  114  A    between atoms: _288  and  _290
REMARK  115  A    between atoms: _290  and  _291
REMARK  116  A    between atoms: _290  and  _293
REMARK  117  A    between atoms: _293  and  _294
REMARK  118  A    between atoms: _297  and  _299
REMARK  119  A    between atoms: _299  and  _300
REMARK  120  A    between atoms: _299  and  _302
REMARK  121  A    between atoms: _302  and  _303
REMARK  122  A    between atoms: _305  and  _307
REMARK  123  A    between atoms: _307  and  _308
REMARK  124  A    between atoms: _307  and  _310
REMARK  125  A    between atoms: _310  and  _311
REMARK  126  A    between atoms: _321  and  _323
REMARK  127  A    between atoms: _323  and  _324
REMARK  128  A    between atoms: _323  and  _326
REMARK  129  A    between atoms: _326  and  _327
REMARK  130  A    between atoms: _327  and  _328
REMARK  131  A    between atoms: _328  and  _329
REMARK                            x       y       z     vdW  Elec       q    Type
REMARK                         _______ _______ _______ _____ _____    ______ ____
ROOT
ATOM      1  O   HOH     1       3.991  13.237  18.055  0.00  0.00    +0.000 OA
ENDROOT
TORSDOF 0
REMARK  Name = ../refined-set-2016/1v0k/1v0k_pocket.pdb
REMARK  131 active torsions:
REMARK  status: ('A' for Active; 'I' for Inactive)
REMARK    1  A    between atoms: _1  and  _3
REMARK    2  A    between atoms: _3  and  _4
REMARK    3  A    between atoms: _7  and  _9
REMARK    4  A    between atoms: _9  and  _10
REMARK    5  A    between atoms: _13  and  _15
REMARK    6  A    between atoms: _15  and  _16
REMARK    7  A    between atoms: _15  and  _18
REMARK    8  A    between atoms: _18  and  _19
REMARK    9  A    between atoms: _19  and  _20
REMARK   10  A    between atoms: _20  and  _21
REMARK   11  A    between atoms: _30  and  _32
REMARK   12  A    between atoms: _32  and  _33
REMARK   13  A    between atoms: _32  and  _35
REMARK   14  A    between atoms: _35  and  _36
REMARK   15  A    between atoms: _39  and  _41
REMARK   16  A    between atoms: _41  and  _42
REMARK   17  A    between atoms: _45  and  _47
REMARK   18  A    between atoms: _47  and  _48
REMARK   19  A    between atoms: _47  and  _50
REMARK   20  A    between atoms: _50  and  _51
REMARK   21  A    between atoms: _51  and  _52
REMARK   22  A    between atoms: _55  and  _57
REMARK   23  A    between atoms: _57  and  _58
REMARK   24  A    between atoms: _57  and  _60
REMARK   25  A    between atoms: _60  and  _61
REMARK   26  A    between atoms: _66  and  _68
REMARK   27  A    between atoms: _68  and  _69
REMARK   28  A    between atoms: _68  and  _71
REMARK   29  A    between atoms: _71  and  _72
REMARK   30  A    between atoms: _72  and  _73
REMARK   31  A    between atoms: _73  and  _74
REMARK   32  A    between atoms: _74  and  _75
REMARK   33  A    between atoms: _79  and  _81
REMARK   34  A    between atoms: _81  and  _82
REMARK   35  A    between atoms: _81  and  _84
REMARK   36  A    between atoms: _84  and  _85
REMARK   37  A    between atoms: _85  and  _86
REMARK   38  A    between atoms: _86  and  _87
REMARK   39  A    between atoms: _96  and  _98
REMARK   40  A    between atoms: _98  and  _99
REMARK   41  A    between atoms: _98  and  _101
REMARK   42  A    between atoms: _101  and  _102
REMARK   43  A    between atoms: _107  and  _109
REMARK   44  A    between atoms: _109  and  _110
REMARK   45  A    between atoms: _109  and  _112
REMARK   46  A    between atoms: _112  and  _113
REMARK   47  A    between atoms: _116  and  _118
REMARK   48  A    between atoms: _118  and  _119
REMARK   49  A    between atoms: _118  and  _121
REMARK   50  A    between atoms: _121  and  _122
REMARK   51  A    between atoms: _132  and  _134
REMARK   52  A    between atoms: _134  and  _135
REMARK   53  A    between atoms: _134  and  _137
REMARK   54  A    between atoms: _137  and  _138
REMARK   55  A    between atoms: _140  and  _142
REMARK   56  A    between atoms: _142  and  _143
REMARK   57  A    between atoms: _142  and  _145
REMARK   58  A    between atoms: _145  and  _146
REMARK   59  A    between atoms: _146  and  _147
REMARK   60  A    between atoms: _152  and  _154
REMARK   61  A    between atoms: _154  and  _155
REMARK   62  A    between atoms: _154  and  _157
REMARK   63  A    between atoms: _157  and  _158
REMARK   64  A    between atoms: _161  and  _163
REMARK   65  A    between atoms: _163  and  _164
REMARK   66  A    between atoms: _163  and  _166
REMARK   67  A    between atoms: _166  and  _167
REMARK   68  A    between atoms: _172  and  _174
REMARK   69  A    between atoms: _174  and  _175
REMARK   70  A    between atoms: _174  and  _177
REMARK   71  A    between atoms: _177  and  _178
REMARK   72  A    between atoms: _178  and  _179
REMARK   73  A    between atoms: _182  and  _184
REMARK   74  A    between atoms: _184  and  _185
REMARK   75  A    between atoms: _184  and  _187
REMARK   76  A    between atoms: _187  and  _188
REMARK   77  A    between atoms: _193  and  _195
REMARK   78  A    between atoms: _195  and  _196
REMARK   79  A    between atoms: _195  and  _198
REMARK   80  A    between atoms: _198  and  _199
REMARK   81  A    between atoms: _202  and  _204
REMARK   82  A    between atoms: _204  and  _205
REMARK   83  A    between atoms: _204  and  _207
REMARK   84  A    between atoms: _207  and  _208
REMARK   85  A    between atoms: _213  and  _214
REMARK   86  A    between atoms: _216  and  _218
REMARK   87  A    between atoms: _218  and  _219
REMARK   88  A    between atoms: _218  and  _221
REMARK   89  A    between atoms: _221  and  _222
REMARK   90  A    between atoms: _222  and  _223
REMARK   91  A    between atoms: _228  and  _230
REMARK   92  A    between atoms: _230  and  _231
REMARK   93  A    between atoms: _230  and  _233
REMARK   94  A    between atoms: _233  and  _234
REMARK   95  A    between atoms: _239  and  _241
REMARK   96  A    between atoms: _241  and  _242
REMARK   97  A    between atoms: _241  and  _244
REMARK   98  A    between atoms: _244  and  _245
REMARK   99  A    between atoms: _248  and  _250
REMARK  100  A    between atoms: _250  and  _251
REMARK  101  A    between atoms: _250  and  _253
REMARK  102  A    between atoms: _253  and  _254
REMARK  103  A    between atoms: _254  and  _255
REMARK  104  A    between atoms: _258  and  _260
REMARK  105  A    between atoms: _260  and  _261
REMARK  106  A    between atoms: _260  and  _263
REMARK  107  A    between atoms: _263  and  _264
REMARK  108  A    between atoms: _267  and  _269
REMARK  109  A    between atoms: _269  and  _270
REMARK  110  A    between atoms: _269  and  _272
REMARK  111  A    between atoms: _272  and  _273
REMARK  112  A    between atoms: _283  and  _285
REMARK  113  A    between atoms: _285  and  _286
REMARK  114  A    between atoms: _288  and  _290
REMARK  115  A    between atoms: _290  and  _291
REMARK  116  A    between atoms: _290  and  _293
REMARK  117  A    between atoms: _293  and  _294
REMARK  118  A    between atoms: _297  and  _299
REMARK  119  A    between atoms: _299  and  _300
REMARK  120  A    between atoms: _299  and  _302
REMARK  121  A    between atoms: _302  and  _303
REMARK  122  A    between atoms: _305  and  _307
REMARK  123  A    between atoms: _307  and  _308
REMARK  124  A    between atoms: _307  and  _310
REMARK  125  A    between atoms: _310  and  _311
REMARK  126  A    between atoms: _321  and  _323
REMARK  127  A    between atoms: _323  and  _324
REMARK  128  A    between atoms: _323  and  _326
REMARK  129  A    between atoms: _326  and  _327
REMARK  130  A    between atoms: _327  and  _328
REMARK  131  A    between atoms: _328  and  _329
REMARK                            x       y       z     vdW  Elec       q    Type
REMARK                         _______ _______ _______ _____ _____    ______ ____
ROOT
ATOM      1  O   HOH     1       7.523  12.480  15.840  0.00  0.00    +0.000 OA
ENDROOT
TORSDOF 0
REMARK  Name = ../refined-set-2016/1v0k/1v0k_pocket.pdb
REMARK  131 active torsions:
REMARK  status: ('A' for Active; 'I' for Inactive)
REMARK    1  A    between atoms: _1  and  _3
REMARK    2  A    between atoms: _3  and  _4
REMARK    3  A    between atoms: _7  and  _9
REMARK    4  A    between atoms: _9  and  _10
REMARK    5  A    between atoms: _13  and  _15
REMARK    6  A    between atoms: _15  and  _16
REMARK    7  A    between atoms: _15  and  _18
REMARK    8  A    between atoms: _18  and  _19
REMARK    9  A    between atoms: _19  and  _20
REMARK   10  A    between atoms: _20  and  _21
REMARK   11  A    between atoms: _30  and  _32
REMARK   12  A    between atoms: _32  and  _33
REMARK   13  A    between atoms: _32  and  _35
REMARK   14  A    between atoms: _35  and  _36
REMARK   15  A    between atoms: _39  and  _41
REMARK   16  A    between atoms: _41  and  _42
REMARK   17  A    between atoms: _45  and  _47
REMARK   18  A    between atoms: _47  and  _48
REMARK   19  A    between atoms: _47  and  _50
REMARK   20  A    between atoms: _50  and  _51
REMARK   21  A    between atoms: _51  and  _52
REMARK   22  A    between atoms: _55  and  _57
REMARK   23  A    between atoms: _57  and  _58
REMARK   24  A    between atoms: _57  and  _60
REMARK   25  A    between atoms: _60  and  _61
REMARK   26  A    between atoms: _66  and  _68
REMARK   27  A    between atoms: _68  and  _69
REMARK   28  A    between atoms: _68  and  _71
REMARK   29  A    between atoms: _71  and  _72
REMARK   30  A    between atoms: _72  and  _73
REMARK   31  A    between atoms: _73  and  _74
REMARK   32  A    between atoms: _74  and  _75
REMARK   33  A    between atoms: _79  and  _81
REMARK   34  A    between atoms: _81  and  _82
REMARK   35  A    between atoms: _81  and  _84
REMARK   36  A    between atoms: _84  and  _85
REMARK   37  A    between atoms: _85  and  _86
REMARK   38  A    between atoms: _86  and  _87
REMARK   39  A    between atoms: _96  and  _98
REMARK   40  A    between atoms: _98  and  _99
REMARK   41  A    between atoms: _98  and  _101
REMARK   42  A    between atoms: _101  and  _102
REMARK   43  A    between atoms: _107  and  _109
REMARK   44  A    between atoms: _109  and  _110
REMARK   45  A    between atoms: _109  and  _112
REMARK   46  A    between atoms: _112  and  _113
REMARK   47  A    between atoms: _116  and  _118
REMARK   48  A    between atoms: _118  and  _119
REMARK   49  A    between atoms: _118  and  _121
REMARK   50  A    between atoms: _121  and  _122
REMARK   51  A    between atoms: _132  and  _134
REMARK   52  A    between atoms: _134  and  _135
REMARK   53  A    between atoms: _134  and  _137
REMARK   54  A    between atoms: _137  and  _138
REMARK   55  A    between atoms: _140  and  _142
REMARK   56  A    between atoms: _142  and  _143
REMARK   57  A    between atoms: _142  and  _145
REMARK   58  A    between atoms: _145  and  _146
REMARK   59  A    between atoms: _146  and  _147
REMARK   60  A    between atoms: _152  and  _154
REMARK   61  A    between atoms: _154  and  _155
REMARK   62  A    between atoms: _154  and  _157
REMARK   63  A    between atoms: _157  and  _158
REMARK   64  A    between atoms: _161  and  _163
REMARK   65  A    between atoms: _163  and  _164
REMARK   66  A    between atoms: _163  and  _166
REMARK   67  A    between atoms: _166  and  _167
REMARK   68  A    between atoms: _172  and  _174
REMARK   69  A    between atoms: _174  and  _175
REMARK   70  A    between atoms: _174  and  _177
REMARK   71  A    between atoms: _177  and  _178
REMARK   72  A    between atoms: _178  and  _179
REMARK   73  A    between atoms: _182  and  _184
REMARK   74  A    between atoms: _184  and  _185
REMARK   75  A    between atoms: _184  and  _187
REMARK   76  A    between atoms: _187  and  _188
REMARK   77  A    between atoms: _193  and  _195
REMARK   78  A    between atoms: _195  and  _196
REMARK   79  A    between atoms: _195  and  _198
REMARK   80  A    between atoms: _198  and  _199
REMARK   81  A    between atoms: _202  and  _204
REMARK   82  A    between atoms: _204  and  _205
REMARK   83  A    between atoms: _204  and  _207
REMARK   84  A    between atoms: _207  and  _208
REMARK   85  A    between atoms: _213  and  _214
REMARK   86  A    between atoms: _216  and  _218
REMARK   87  A    between atoms: _218  and  _219
REMARK   88  A    between atoms: _218  and  _221
REMARK   89  A    between atoms: _221  and  _222
REMARK   90  A    between atoms: _222  and  _223
REMARK   91  A    between atoms: _228  and  _230
REMARK   92  A    between atoms: _230  and  _231
REMARK   93  A    between atoms: _230  and  _233
REMARK   94  A    between atoms: _233  and  _234
REMARK   95  A    between atoms: _239  and  _241
REMARK   96  A    between atoms: _241  and  _242
REMARK   97  A    between atoms: _241  and  _244
REMARK   98  A    between atoms: _244  and  _245
REMARK   99  A    between atoms: _248  and  _250
REMARK  100  A    between atoms: _250  and  _251
REMARK  101  A    between atoms: _250  and  _253
REMARK  102  A    between atoms: _253  and  _254
REMARK  103  A    between atoms: _254  and  _255
REMARK  104  A    between atoms: _258  and  _260
REMARK  105  A    between atoms: _260  and  _261
REMARK  106  A    between atoms: _260  and  _263
REMARK  107  A    between atoms: _263  and  _264
REMARK  108  A    between atoms: _267  and  _269
REMARK  109  A    between atoms: _269  and  _270
REMARK  110  A    between atoms: _269  and  _272
REMARK  111  A    between atoms: _272  and  _273
REMARK  112  A    between atoms: _283  and  _285
REMARK  113  A    between atoms: _285  and  _286
REMARK  114  A    between atoms: _288  and  _290
REMARK  115  A    between atoms: _290  and  _291
REMARK  116  A    between atoms: _290  and  _293
REMARK  117  A    between atoms: _293  and  _294
REMARK  118  A    between atoms: _297  and  _299
REMARK  119  A    between atoms: _299  and  _300
REMARK  120  A    between atoms: _299  and  _302
REMARK  121  A    between atoms: _302  and  _303
REMARK  122  A    between atoms: _305  and  _307
REMARK  123  A    between atoms: _307  and  _308
REMARK  124  A    between atoms: _307  and  _310
REMARK  125  A    between atoms: _310  and  _311
REMARK  126  A    between atoms: _321  and  _323
REMARK  127  A    between atoms: _323  and  _324
REMARK  128  A    between atoms: _323  and  _326
REMARK  129  A    between atoms: _326  and  _327
REMARK  130  A    between atoms: _327  and  _328
REMARK  131  A    between atoms: _328  and  _329
REMARK                            x       y       z     vdW  Elec       q    Type
REMARK                         _______ _______ _______ _____ _____    ______ ____
ROOT
ATOM      1  O   HOH     1       6.762  18.687  15.504  0.00  0.00    +0.000 OA
ENDROOT
TORSDOF 0
REMARK  Name = ../refined-set-2016/1v0k/1v0k_pocket.pdb
REMARK  131 active torsions:
REMARK  status: ('A' for Active; 'I' for Inactive)
REMARK    1  A    between atoms: _1  and  _3
REMARK    2  A    between atoms: _3  and  _4
REMARK    3  A    between atoms: _7  and  _9
REMARK    4  A    between atoms: _9  and  _10
REMARK    5  A    between atoms: _13  and  _15
REMARK    6  A    between atoms: _15  and  _16
REMARK    7  A    between atoms: _15  and  _18
REMARK    8  A    between atoms: _18  and  _19
REMARK    9  A    between atoms: _19  and  _20
REMARK   10  A    between atoms: _20  and  _21
REMARK   11  A    between atoms: _30  and  _32
REMARK   12  A    between atoms: _32  and  _33
REMARK   13  A    between atoms: _32  and  _35
REMARK   14  A    between atoms: _35  and  _36
REMARK   15  A    between atoms: _39  and  _41
REMARK   16  A    between atoms: _41  and  _42
REMARK   17  A    between atoms: _45  and  _47
REMARK   18  A    between atoms: _47  and  _48
REMARK   19  A    between atoms: _47  and  _50
REMARK   20  A    between atoms: _50  and  _51
REMARK   21  A    between atoms: _51  and  _52
REMARK   22  A    between atoms: _55  and  _57
REMARK   23  A    between atoms: _57  and  _58
REMARK   24  A    between atoms: _57  and  _60
REMARK   25  A    between atoms: _60  and  _61
REMARK   26  A    between atoms: _66  and  _68
REMARK   27  A    between atoms: _68  and  _69
REMARK   28  A    between atoms: _68  and  _71
REMARK   29  A    between atoms: _71  and  _72
REMARK   30  A    between atoms: _72  and  _73
REMARK   31  A    between atoms: _73  and  _74
REMARK   32  A    between atoms: _74  and  _75
REMARK   33  A    between atoms: _79  and  _81
REMARK   34  A    between atoms: _81  and  _82
REMARK   35  A    between atoms: _81  and  _84
REMARK   36  A    between atoms: _84  and  _85
REMARK   37  A    between atoms: _85  and  _86
REMARK   38  A    between atoms: _86  and  _87
REMARK   39  A    between atoms: _96  and  _98
REMARK   40  A    between atoms: _98  and  _99
REMARK   41  A    between atoms: _98  and  _101
REMARK   42  A    between atoms: _101  and  _102
REMARK   43  A    between atoms: _107  and  _109
REMARK   44  A    between atoms: _109  and  _110
REMARK   45  A    between atoms: _109  and  _112
REMARK   46  A    between atoms: _112  and  _113
REMARK   47  A    between atoms: _116  and  _118
REMARK   48  A    between atoms: _118  and  _119
REMARK   49  A    between atoms: _118  and  _121
REMARK   50  A    between atoms: _121  and  _122
REMARK   51  A    between atoms: _132  and  _134
REMARK   52  A    between atoms: _134  and  _135
REMARK   53  A    between atoms: _134  and  _137
REMARK   54  A    between atoms: _137  and  _138
REMARK   55  A    between atoms: _140  and  _142
REMARK   56  A    between atoms: _142  and  _143
REMARK   57  A    between atoms: _142  and  _145
REMARK   58  A    between atoms: _145  and  _146
REMARK   59  A    between atoms: _146  and  _147
REMARK   60  A    between atoms: _152  and  _154
REMARK   61  A    between atoms: _154  and  _155
REMARK   62  A    between atoms: _154  and  _157
REMARK   63  A    between atoms: _157  and  _158
REMARK   64  A    between atoms: _161  and  _163
REMARK   65  A    between atoms: _163  and  _164
REMARK   66  A    between atoms: _163  and  _166
REMARK   67  A    between atoms: _166  and  _167
REMARK   68  A    between atoms: _172  and  _174
REMARK   69  A    between atoms: _174  and  _175
REMARK   70  A    between atoms: _174  and  _177
REMARK   71  A    between atoms: _177  and  _178
REMARK   72  A    between atoms: _178  and  _179
REMARK   73  A    between atoms: _182  and  _184
REMARK   74  A    between atoms: _184  and  _185
REMARK   75  A    between atoms: _184  and  _187
REMARK   76  A    between atoms: _187  and  _188
REMARK   77  A    between atoms: _193  and  _195
REMARK   78  A    between atoms: _195  and  _196
REMARK   79  A    between atoms: _195  and  _198
REMARK   80  A    between atoms: _198  and  _199
REMARK   81  A    between atoms: _202  and  _204
REMARK   82  A    between atoms: _204  and  _205
REMARK   83  A    between atoms: _204  and  _207
REMARK   84  A    between atoms: _207  and  _208
REMARK   85  A    between atoms: _213  and  _214
REMARK   86  A    between atoms: _216  and  _218
REMARK   87  A    between atoms: _218  and  _219
REMARK   88  A    between atoms: _218  and  _221
REMARK   89  A    between atoms: _221  and  _222
REMARK   90  A    between atoms: _222  and  _223
REMARK   91  A    between atoms: _228  and  _230
REMARK   92  A    between atoms: _230  and  _231
REMARK   93  A    between atoms: _230  and  _233
REMARK   94  A    between atoms: _233  and  _234
REMARK   95  A    between atoms: _239  and  _241
REMARK   96  A    between atoms: _241  and  _242
REMARK   97  A    between atoms: _241  and  _244
REMARK   98  A    between atoms: _244  and  _245
REMARK   99  A    between atoms: _248  and  _250
REMARK  100  A    between atoms: _250  and  _251
REMARK  101  A    between atoms: _250  and  _253
REMARK  102  A    between atoms: _253  and  _254
REMARK  103  A    between atoms: _254  and  _255
REMARK  104  A    between atoms: _258  and  _260
REMARK  105  A    between atoms: _260  and  _261
REMARK  106  A    between atoms: _260  and  _263
REMARK  107  A    between atoms: _263  and  _264
REMARK  108  A    between atoms: _267  and  _269
REMARK  109  A    between atoms: _269  and  _270
REMARK  110  A    between atoms: _269  and  _272
REMARK  111  A    between atoms: _272  and  _273
REMARK  112  A    between atoms: _283  and  _285
REMARK  113  A    between atoms: _285  and  _286
REMARK  114  A    between atoms: _288  and  _290
REMARK  115  A    between atoms: _290  and  _291
REMARK  116  A    between atoms: _290  and  _293
REMARK  117  A    between atoms: _293  and  _294
REMARK  118  A    between atoms: _297  and  _299
REMARK  119  A    between atoms: _299  and  _300
REMARK  120  A    between atoms: _299  and  _302
REMARK  121  A    between atoms: _302  and  _303
REMARK  122  A    between atoms: _305  and  _307
REMARK  123  A    between atoms: _307  and  _308
REMARK  124  A    between atoms: _307  and  _310
REMARK  125  A    between atoms: _310  and  _311
REMARK  126  A    between atoms: _321  and  _323
REMARK  127  A    between atoms: _323  and  _324
REMARK  128  A    between atoms: _323  and  _326
REMARK  129  A    between atoms: _326  and  _327
REMARK  130  A    between atoms: _327  and  _328
REMARK  131  A    between atoms: _328  and  _329
REMARK                            x       y       z     vdW  Elec       q    Type
REMARK                         _______ _______ _______ _____ _____    ______ ____
ROOT
ATOM      1  O   HOH     1       7.958  13.623  18.060  0.00  0.00    +0.000 OA
ENDROOT
TORSDOF 0
REMARK  Name = ../refined-set-2016/1v0k/1v0k_pocket.pdb
REMARK  131 active torsions:
REMARK  status: ('A' for Active; 'I' for Inactive)
REMARK    1  A    between atoms: _1  and  _3
REMARK    2  A    between atoms: _3  and  _4
REMARK    3  A    between atoms: _7  and  _9
REMARK    4  A    between atoms: _9  and  _10
REMARK    5  A    between atoms: _13  and  _15
REMARK    6  A    between atoms: _15  and  _16
REMARK    7  A    between atoms: _15  and  _18
REMARK    8  A    between atoms: _18  and  _19
REMARK    9  A    between atoms: _19  and  _20
REMARK   10  A    between atoms: _20  and  _21
REMARK   11  A    between atoms: _30  and  _32
REMARK   12  A    between atoms: _32  and  _33
REMARK   13  A    between atoms: _32  and  _35
REMARK   14  A    between atoms: _35  and  _36
REMARK   15  A    between atoms: _39  and  _41
REMARK   16  A    between atoms: _41  and  _42
REMARK   17  A    between atoms: _45  and  _47
REMARK   18  A    between atoms: _47  and  _48
REMARK   19  A    between atoms: _47  and  _50
REMARK   20  A    between atoms: _50  and  _51
REMARK   21  A    between atoms: _51  and  _52
REMARK   22  A    between atoms: _55  and  _57
REMARK   23  A    between atoms: _57  and  _58
REMARK   24  A    between atoms: _57  and  _60
REMARK   25  A    between atoms: _60  and  _61
REMARK   26  A    between atoms: _66  and  _68
REMARK   27  A    between atoms: _68  and  _69
REMARK   28  A    between atoms: _68  and  _71
REMARK   29  A    between atoms: _71  and  _72
REMARK   30  A    between atoms: _72  and  _73
REMARK   31  A    between atoms: _73  and  _74
REMARK   32  A    between atoms: _74  and  _75
REMARK   33  A    between atoms: _79  and  _81
REMARK   34  A    between atoms: _81  and  _82
REMARK   35  A    between atoms: _81  and  _84
REMARK   36  A    between atoms: _84  and  _85
REMARK   37  A    between atoms: _85  and  _86
REMARK   38  A    between atoms: _86  and  _87
REMARK   39  A    between atoms: _96  and  _98
REMARK   40  A    between atoms: _98  and  _99
REMARK   41  A    between atoms: _98  and  _101
REMARK   42  A    between atoms: _101  and  _102
REMARK   43  A    between atoms: _107  and  _109
REMARK   44  A    between atoms: _109  and  _110
REMARK   45  A    between atoms: _109  and  _112
REMARK   46  A    between atoms: _112  and  _113
REMARK   47  A    between atoms: _116  and  _118
REMARK   48  A    between atoms: _118  and  _119
REMARK   49  A    between atoms: _118  and  _121
REMARK   50  A    between atoms: _121  and  _122
REMARK   51  A    between atoms: _132  and  _134
REMARK   52  A    between atoms: _134  and  _135
REMARK   53  A    between atoms: _134  and  _137
REMARK   54  A    between atoms: _137  and  _138
REMARK   55  A    between atoms: _140  and  _142
REMARK   56  A    between atoms: _142  and  _143
REMARK   57  A    between atoms: _142  and  _145
REMARK   58  A    between atoms: _145  and  _146
REMARK   59  A    between atoms: _146  and  _147
REMARK   60  A    between atoms: _152  and  _154
REMARK   61  A    between atoms: _154  and  _155
REMARK   62  A    between atoms: _154  and  _157
REMARK   63  A    between atoms: _157  and  _158
REMARK   64  A    between atoms: _161  and  _163
REMARK   65  A    between atoms: _163  and  _164
REMARK   66  A    between atoms: _163  and  _166
REMARK   67  A    between atoms: _166  and  _167
REMARK   68  A    between atoms: _172  and  _174
REMARK   69  A    between atoms: _174  and  _175
REMARK   70  A    between atoms: _174  and  _177
REMARK   71  A    between atoms: _177  and  _178
REMARK   72  A    between atoms: _178  and  _179
REMARK   73  A    between atoms: _182  and  _184
REMARK   74  A    between atoms: _184  and  _185
REMARK   75  A    between atoms: _184  and  _187
REMARK   76  A    between atoms: _187  and  _188
REMARK   77  A    between atoms: _193  and  _195
REMARK   78  A    between atoms: _195  and  _196
REMARK   79  A    between atoms: _195  and  _198
REMARK   80  A    between atoms: _198  and  _199
REMARK   81  A    between atoms: _202  and  _204
REMARK   82  A    between atoms: _204  and  _205
REMARK   83  A    between atoms: _204  and  _207
REMARK   84  A    between atoms: _207  and  _208
REMARK   85  A    between atoms: _213  and  _214
REMARK   86  A    between atoms: _216  and  _218
REMARK   87  A    between atoms: _218  and  _219
REMARK   88  A    between atoms: _218  and  _221
REMARK   89  A    between atoms: _221  and  _222
REMARK   90  A    between atoms: _222  and  _223
REMARK   91  A    between atoms: _228  and  _230
REMARK   92  A    between atoms: _230  and  _231
REMARK   93  A    between atoms: _230  and  _233
REMARK   94  A    between atoms: _233  and  _234
REMARK   95  A    between atoms: _239  and  _241
REMARK   96  A    between atoms: _241  and  _242
REMARK   97  A    between atoms: _241  and  _244
REMARK   98  A    between atoms: _244  and  _245
REMARK   99  A    between atoms: _248  and  _250
REMARK  100  A    between atoms: _250  and  _251
REMARK  101  A    between atoms: _250  and  _253
REMARK  102  A    between atoms: _253  and  _254
REMARK  103  A    between atoms: _254  and  _255
REMARK  104  A    between atoms: _258  and  _260
REMARK  105  A    between atoms: _260  and  _261
REMARK  106  A    between atoms: _260  and  _263
REMARK  107  A    between atoms: _263  and  _264
REMARK  108  A    between atoms: _267  and  _269
REMARK  109  A    between atoms: _269  and  _270
REMARK  110  A    between atoms: _269  and  _272
REMARK  111  A    between atoms: _272  and  _273
REMARK  112  A    between atoms: _283  and  _285
REMARK  113  A    between atoms: _285  and  _286
REMARK  114  A    between atoms: _288  and  _290
REMARK  115  A    between atoms: _290  and  _291
REMARK  116  A    between atoms: _290  and  _293
REMARK  117  A    between atoms: _293  and  _294
REMARK  118  A    between atoms: _297  and  _299
REMARK  119  A    between atoms: _299  and  _300
REMARK  120  A    between atoms: _299  and  _302
REMARK  121  A    between atoms: _302  and  _303
REMARK  122  A    between atoms: _305  and  _307
REMARK  123  A    between atoms: _307  and  _308
REMARK  124  A    between atoms: _307  and  _310
REMARK  125  A    between atoms: _310  and  _311
REMARK  126  A    between atoms: _321  and  _323
REMARK  127  A    between atoms: _323  and  _324
REMARK  128  A    between atoms: _323  and  _326
REMARK  129  A    between atoms: _326  and  _327
REMARK  130  A    between atoms: _327  and  _328
REMARK  131  A    between atoms: _328  and  _329
REMARK                            x       y       z     vdW  Elec       q    Type
REMARK                         _______ _______ _______ _____ _____    ______ ____
ROOT
ATOM      1  O   HOH     1      10.076  15.486  15.554  0.00  0.00    +0.000 OA
ENDROOT
TORSDOF 0
REMARK  Name = ../refined-set-2016/1v0k/1v0k_pocket.pdb
REMARK  131 active torsions:
REMARK  status: ('A' for Active; 'I' for Inactive)
REMARK    1  A    between atoms: _1  and  _3
REMARK    2  A    between atoms: _3  and  _4
REMARK    3  A    between atoms: _7  and  _9
REMARK    4  A    between atoms: _9  and  _10
REMARK    5  A    between atoms: _13  and  _15
REMARK    6  A    between atoms: _15  and  _16
REMARK    7  A    between atoms: _15  and  _18
REMARK    8  A    between atoms: _18  and  _19
REMARK    9  A    between atoms: _19  and  _20
REMARK   10  A    between atoms: _20  and  _21
REMARK   11  A    between atoms: _30  and  _32
REMARK   12  A    between atoms: _32  and  _33
REMARK   13  A    between atoms: _32  and  _35
REMARK   14  A    between atoms: _35  and  _36
REMARK   15  A    between atoms: _39  and  _41
REMARK   16  A    between atoms: _41  and  _42
REMARK   17  A    between atoms: _45  and  _47
REMARK   18  A    between atoms: _47  and  _48
REMARK   19  A    between atoms: _47  and  _50
REMARK   20  A    between atoms: _50  and  _51
REMARK   21  A    between atoms: _51  and  _52
REMARK   22  A    between atoms: _55  and  _57
REMARK   23  A    between atoms: _57  and  _58
REMARK   24  A    between atoms: _57  and  _60
REMARK   25  A    between atoms: _60  and  _61
REMARK   26  A    between atoms: _66  and  _68
REMARK   27  A    between atoms: _68  and  _69
REMARK   28  A    between atoms: _68  and  _71
REMARK   29  A    between atoms: _71  and  _72
REMARK   30  A    between atoms: _72  and  _73
REMARK   31  A    between atoms: _73  and  _74
REMARK   32  A    between atoms: _74  and  _75
REMARK   33  A    between atoms: _79  and  _81
REMARK   34  A    between atoms: _81  and  _82
REMARK   35  A    between atoms: _81  and  _84
REMARK   36  A    between atoms: _84  and  _85
REMARK   37  A    between atoms: _85  and  _86
REMARK   38  A    between atoms: _86  and  _87
REMARK   39  A    between atoms: _96  and  _98
REMARK   40  A    between atoms: _98  and  _99
REMARK   41  A    between atoms: _98  and  _101
REMARK   42  A    between atoms: _101  and  _102
REMARK   43  A    between atoms: _107  and  _109
REMARK   44  A    between atoms: _109  and  _110
REMARK   45  A    between atoms: _109  and  _112
REMARK   46  A    between atoms: _112  and  _113
REMARK   47  A    between atoms: _116  and  _118
REMARK   48  A    between atoms: _118  and  _119
REMARK   49  A    between atoms: _118  and  _121
REMARK   50  A    between atoms: _121  and  _122
REMARK   51  A    between atoms: _132  and  _134
REMARK   52  A    between atoms: _134  and  _135
REMARK   53  A    between atoms: _134  and  _137
REMARK   54  A    between atoms: _137  and  _138
REMARK   55  A    between atoms: _140  and  _142
REMARK   56  A    between atoms: _142  and  _143
REMARK   57  A    between atoms: _142  and  _145
REMARK   58  A    between atoms: _145  and  _146
REMARK   59  A    between atoms: _146  and  _147
REMARK   60  A    between atoms: _152  and  _154
REMARK   61  A    between atoms: _154  and  _155
REMARK   62  A    between atoms: _154  and  _157
REMARK   63  A    between atoms: _157  and  _158
REMARK   64  A    between atoms: _161  and  _163
REMARK   65  A    between atoms: _163  and  _164
REMARK   66  A    between atoms: _163  and  _166
REMARK   67  A    between atoms: _166  and  _167
REMARK   68  A    between atoms: _172  and  _174
REMARK   69  A    between atoms: _174  and  _175
REMARK   70  A    between atoms: _174  and  _177
REMARK   71  A    between atoms: _177  and  _178
REMARK   72  A    between atoms: _178  and  _179
REMARK   73  A    between atoms: _182  and  _184
REMARK   74  A    between atoms: _184  and  _185
REMARK   75  A    between atoms: _184  and  _187
REMARK   76  A    between atoms: _187  and  _188
REMARK   77  A    between atoms: _193  and  _195
REMARK   78  A    between atoms: _195  and  _196
REMARK   79  A    between atoms: _195  and  _198
REMARK   80  A    between atoms: _198  and  _199
REMARK   81  A    between atoms: _202  and  _204
REMARK   82  A    between atoms: _204  and  _205
REMARK   83  A    between atoms: _204  and  _207
REMARK   84  A    between atoms: _207  and  _208
REMARK   85  A    between atoms: _213  and  _214
REMARK   86  A    between atoms: _216  and  _218
REMARK   87  A    between atoms: _218  and  _219
REMARK   88  A    between atoms: _218  and  _221
REMARK   89  A    between atoms: _221  and  _222
REMARK   90  A    between atoms: _222  and  _223
REMARK   91  A    between atoms: _228  and  _230
REMARK   92  A    between atoms: _230  and  _231
REMARK   93  A    between atoms: _230  and  _233
REMARK   94  A    between atoms: _233  and  _234
REMARK   95  A    between atoms: _239  and  _241
REMARK   96  A    between atoms: _241  and  _242
REMARK   97  A    between atoms: _241  and  _244
REMARK   98  A    between atoms: _244  and  _245
REMARK   99  A    between atoms: _248  and  _250
REMARK  100  A    between atoms: _250  and  _251
REMARK  101  A    between atoms: _250  and  _253
REMARK  102  A    between atoms: _253  and  _254
REMARK  103  A    between atoms: _254  and  _255
REMARK  104  A    between atoms: _258  and  _260
REMARK  105  A    between atoms: _260  and  _261
REMARK  106  A    between atoms: _260  and  _263
REMARK  107  A    between atoms: _263  and  _264
REMARK  108  A    between atoms: _267  and  _269
REMARK  109  A    between atoms: _269  and  _270
REMARK  110  A    between atoms: _269  and  _272
REMARK  111  A    between atoms: _272  and  _273
REMARK  112  A    between atoms: _283  and  _285
REMARK  113  A    between atoms: _285  and  _286
REMARK  114  A    between atoms: _288  and  _290
REMARK  115  A    between atoms: _290  and  _291
REMARK  116  A    between atoms: _290  and  _293
REMARK  117  A    between atoms: _293  and  _294
REMARK  118  A    between atoms: _297  and  _299
REMARK  119  A    between atoms: _299  and  _300
REMARK  120  A    between atoms: _299  and  _302
REMARK  121  A    between atoms: _302  and  _303
REMARK  122  A    between atoms: _305  and  _307
REMARK  123  A    between atoms: _307  and  _308
REMARK  124  A    between atoms: _307  and  _310
REMARK  125  A    between atoms: _310  and  _311
REMARK  126  A    between atoms: _321  and  _323
REMARK  127  A    between atoms: _323  and  _324
REMARK  128  A    between atoms: _323  and  _326
REMARK  129  A    between atoms: _326  and  _327
REMARK  130  A    between atoms: _327  and  _328
REMARK  131  A    between atoms: _328  and  _329
REMARK                            x       y       z     vdW  Elec       q    Type
REMARK                         _______ _______ _______ _____ _____    ______ ____
ROOT
ATOM      1  O   HOH     1      11.735  17.815  16.907  0.00  0.00    +0.000 OA
ENDROOT
TORSDOF 0
REMARK  Name = ../refined-set-2016/1v0k/1v0k_pocket.pdb
REMARK  131 active torsions:
REMARK  status: ('A' for Active; 'I' for Inactive)
REMARK    1  A    between atoms: _1  and  _3
REMARK    2  A    between atoms: _3  and  _4
REMARK    3  A    between atoms: _7  and  _9
REMARK    4  A    between atoms: _9  and  _10
REMARK    5  A    between atoms: _13  and  _15
REMARK    6  A    between atoms: _15  and  _16
REMARK    7  A    between atoms: _15  and  _18
REMARK    8  A    between atoms: _18  and  _19
REMARK    9  A    between atoms: _19  and  _20
REMARK   10  A    between atoms: _20  and  _21
REMARK   11  A    between atoms: _30  and  _32
REMARK   12  A    between atoms: _32  and  _33
REMARK   13  A    between atoms: _32  and  _35
REMARK   14  A    between atoms: _35  and  _36
REMARK   15  A    between atoms: _39  and  _41
REMARK   16  A    between atoms: _41  and  _42
REMARK   17  A    between atoms: _45  and  _47
REMARK   18  A    between atoms: _47  and  _48
REMARK   19  A    between atoms: _47  and  _50
REMARK   20  A    between atoms: _50  and  _51
REMARK   21  A    between atoms: _51  and  _52
REMARK   22  A    between atoms: _55  and  _57
REMARK   23  A    between atoms: _57  and  _58
REMARK   24  A    between atoms: _57  and  _60
REMARK   25  A    between atoms: _60  and  _61
REMARK   26  A    between atoms: _66  and  _68
REMARK   27  A    between atoms: _68  and  _69
REMARK   28  A    between atoms: _68  and  _71
REMARK   29  A    between atoms: _71  and  _72
REMARK   30  A    between atoms: _72  and  _73
REMARK   31  A    between atoms: _73  and  _74
REMARK   32  A    between atoms: _74  and  _75
REMARK   33  A    between atoms: _79  and  _81
REMARK   34  A    between atoms: _81  and  _82
REMARK   35  A    between atoms: _81  and  _84
REMARK   36  A    between atoms: _84  and  _85
REMARK   37  A    between atoms: _85  and  _86
REMARK   38  A    between atoms: _86  and  _87
REMARK   39  A    between atoms: _96  and  _98
REMARK   40  A    between atoms: _98  and  _99
REMARK   41  A    between atoms: _98  and  _101
REMARK   42  A    between atoms: _101  and  _102
REMARK   43  A    between atoms: _107  and  _109
REMARK   44  A    between atoms: _109  and  _110
REMARK   45  A    between atoms: _109  and  _112
REMARK   46  A    between atoms: _112  and  _113
REMARK   47  A    between atoms: _116  and  _118
REMARK   48  A    between atoms: _118  and  _119
REMARK   49  A    between atoms: _118  and  _121
REMARK   50  A    between atoms: _121  and  _122
REMARK   51  A    between atoms: _132  and  _134
REMARK   52  A    between atoms: _134  and  _135
REMARK   53  A    between atoms: _134  and  _137
REMARK   54  A    between atoms: _137  and  _138
REMARK   55  A    between atoms: _140  and  _142
REMARK   56  A    between atoms: _142  and  _143
REMARK   57  A    between atoms: _142  and  _145
REMARK   58  A    between atoms: _145  and  _146
REMARK   59  A    between atoms: _146  and  _147
REMARK   60  A    between atoms: _152  and  _154
REMARK   61  A    between atoms: _154  and  _155
REMARK   62  A    between atoms: _154  and  _157
REMARK   63  A    between atoms: _157  and  _158
REMARK   64  A    between atoms: _161  and  _163
REMARK   65  A    between atoms: _163  and  _164
REMARK   66  A    between atoms: _163  and  _166
REMARK   67  A    between atoms: _166  and  _167
REMARK   68  A    between atoms: _172  and  _174
REMARK   69  A    between atoms: _174  and  _175
REMARK   70  A    between atoms: _174  and  _177
REMARK   71  A    between atoms: _177  and  _178
REMARK   72  A    between atoms: _178  and  _179
REMARK   73  A    between atoms: _182  and  _184
REMARK   74  A    between atoms: _184  and  _185
REMARK   75  A    between atoms: _184  and  _187
REMARK   76  A    between atoms: _187  and  _188
REMARK   77  A    between atoms: _193  and  _195
REMARK   78  A    between atoms: _195  and  _196
REMARK   79  A    between atoms: _195  and  _198
REMARK   80  A    between atoms: _198  and  _199
REMARK   81  A    between atoms: _202  and  _204
REMARK   82  A    between atoms: _204  and  _205
REMARK   83  A    between atoms: _204  and  _207
REMARK   84  A    between atoms: _207  and  _208
REMARK   85  A    between atoms: _213  and  _214
REMARK   86  A    between atoms: _216  and  _218
REMARK   87  A    between atoms: _218  and  _219
REMARK   88  A    between atoms: _218  and  _221
REMARK   89  A    between atoms: _221  and  _222
REMARK   90  A    between atoms: _222  and  _223
REMARK   91  A    between atoms: _228  and  _230
REMARK   92  A    between atoms: _230  and  _231
REMARK   93  A    between atoms: _230  and  _233
REMARK   94  A    between atoms: _233  and  _234
REMARK   95  A    between atoms: _239  and  _241
REMARK   96  A    between atoms: _241  and  _242
REMARK   97  A    between atoms: _241  and  _244
REMARK   98  A    between atoms: _244  and  _245
REMARK   99  A    between atoms: _248  and  _250
REMARK  100  A    between atoms: _250  and  _251
REMARK  101  A    between atoms: _250  and  _253
REMARK  102  A    between atoms: _253  and  _254
REMARK  103  A    between atoms: _254  and  _255
REMARK  104  A    between atoms: _258  and  _260
REMARK  105  A    between atoms: _260  and  _261
REMARK  106  A    between atoms: _260  and  _263
REMARK  107  A    between atoms: _263  and  _264
REMARK  108  A    between atoms: _267  and  _269
REMARK  109  A    between atoms: _269  and  _270
REMARK  110  A    between atoms: _269  and  _272
REMARK  111  A    between atoms: _272  and  _273
REMARK  112  A    between atoms: _283  and  _285
REMARK  113  A    between atoms: _285  and  _286
REMARK  114  A    between atoms: _288  and  _290
REMARK  115  A    between atoms: _290  and  _291
REMARK  116  A    between atoms: _290  and  _293
REMARK  117  A    between atoms: _293  and  _294
REMARK  118  A    between atoms: _297  and  _299
REMARK  119  A    between atoms: _299  and  _300
REMARK  120  A    between atoms: _299  and  _302
REMARK  121  A    between atoms: _302  and  _303
REMARK  122  A    between atoms: _305  and  _307
REMARK  123  A    between atoms: _307  and  _308
REMARK  124  A    between atoms: _307  and  _310
REMARK  125  A    between atoms: _310  and  _311
REMARK  126  A    between atoms: _321  and  _323
REMARK  127  A    between atoms: _323  and  _324
REMARK  128  A    between atoms: _323  and  _326
REMARK  129  A    between atoms: _326  and  _327
REMARK  130  A    between atoms: _327  and  _328
REMARK  131  A    between atoms: _328  and  _329
REMARK                            x       y       z     vdW  Elec       q    Type
REMARK                         _______ _______ _______ _____ _____    ______ ____
ROOT
ATOM      1  O   HOH     1       9.107  15.589  18.236  0.00  0.00    +0.000 OA
ENDROOT
TORSDOF 0
