REMARK  Name = ../refined-set-2016/4auj/4auj_pocket.pdb
REMARK  120 active torsions:
REMARK  status: ('A' for Active; 'I' for Inactive)
REMARK    1  A    between atoms: _1  and  _5
REMARK    2  A    between atoms: _5  and  _6
REMARK    3  A    between atoms: _5  and  _8
REMARK    4  A    between atoms: _8  and  _9
REMARK    5  A    between atoms: _15  and  _17
REMARK    6  A    between atoms: _17  and  _18
REMARK    7  A    between atoms: _22  and  _23
REMARK    8  A    between atoms: _28  and  _30
REMARK    9  A    between atoms: _30  and  _31
REMARK   10  A    between atoms: _30  and  _33
REMARK   11  A    between atoms: _33  and  _34
REMARK   12  A    between atoms: _37  and  _39
REMARK   13  A    between atoms: _39  and  _40
REMARK   14  A    between atoms: _42  and  _44
REMARK   15  A    between atoms: _44  and  _45
REMARK   16  A    between atoms: _47  and  _49
REMARK   17  A    between atoms: _49  and  _50
REMARK   18  A    between atoms: _49  and  _52
REMARK   19  A    between atoms: _52  and  _53
REMARK   20  A    between atoms: _58  and  _60
REMARK   21  A    between atoms: _60  and  _61
REMARK   22  A    between atoms: _60  and  _63
REMARK   23  A    between atoms: _63  and  _64
REMARK   24  A    between atoms: _69  and  _71
REMARK   25  A    between atoms: _71  and  _72
REMARK   26  A    between atoms: _71  and  _74
REMARK   27  A    between atoms: _74  and  _75
REMARK   28  A    between atoms: _78  and  _80
REMARK   29  A    between atoms: _80  and  _81
REMARK   30  A    between atoms: _80  and  _83
REMARK   31  A    between atoms: _83  and  _84
REMARK   32  A    between atoms: _89  and  _90
REMARK   33  A    between atoms: _93  and  _94
REMARK   34  A    between atoms: _99  and  _101
REMARK   35  A    between atoms: _101  and  _102
REMARK   36  A    between atoms: _101  and  _104
REMARK   37  A    between atoms: _104  and  _105
REMARK   38  A    between atoms: _105  and  _106
REMARK   39  A    between atoms: _109  and  _111
REMARK   40  A    between atoms: _111  and  _112
REMARK   41  A    between atoms: _111  and  _114
REMARK   42  A    between atoms: _114  and  _115
REMARK   43  A    between atoms: _118  and  _120
REMARK   44  A    between atoms: _120  and  _121
REMARK   45  A    between atoms: _120  and  _123
REMARK   46  A    between atoms: _123  and  _124
REMARK   47  A    between atoms: _127  and  _129
REMARK   48  A    between atoms: _129  and  _130
REMARK   49  A    between atoms: _129  and  _132
REMARK   50  A    between atoms: _132  and  _133
REMARK   51  A    between atoms: _136  and  _138
REMARK   52  A    between atoms: _138  and  _139
REMARK   53  A    between atoms: _138  and  _141
REMARK   54  A    between atoms: _141  and  _142
REMARK   55  A    between atoms: _145  and  _147
REMARK   56  A    between atoms: _147  and  _148
REMARK   57  A    between atoms: _147  and  _150
REMARK   58  A    between atoms: _150  and  _151
REMARK   59  A    between atoms: _156  and  _157
REMARK   60  A    between atoms: _159  and  _161
REMARK   61  A    between atoms: _161  and  _162
REMARK   62  A    between atoms: _161  and  _164
REMARK   63  A    between atoms: _164  and  _165
REMARK   64  A    between atoms: _170  and  _171
REMARK   65  A    between atoms: _173  and  _175
REMARK   66  A    between atoms: _175  and  _176
REMARK   67  A    between atoms: _175  and  _178
REMARK   68  A    between atoms: _178  and  _179
REMARK   69  A    between atoms: _181  and  _183
REMARK   70  A    between atoms: _183  and  _184
REMARK   71  A    between atoms: _183  and  _186
REMARK   72  A    between atoms: _186  and  _187
REMARK   73  A    between atoms: _187  and  _188
REMARK   74  A    between atoms: _188  and  _189
REMARK   75  A    between atoms: _198  and  _200
REMARK   76  A    between atoms: _200  and  _201
REMARK   77  A    between atoms: _200  and  _203
REMARK   78  A    between atoms: _203  and  _204
REMARK   79  A    between atoms: _204  and  _205
REMARK   80  A    between atoms: _210  and  _212
REMARK   81  A    between atoms: _212  and  _213
REMARK   82  A    between atoms: _212  and  _215
REMARK   83  A    between atoms: _215  and  _216
REMARK   84  A    between atoms: _219  and  _221
REMARK   85  A    between atoms: _221  and  _222
REMARK   86  A    between atoms: _221  and  _224
REMARK   87  A    between atoms: _224  and  _225
REMARK   88  A    between atoms: _230  and  _232
REMARK   89  A    between atoms: _232  and  _233
REMARK   90  A    between atoms: _232  and  _235
REMARK   91  A    between atoms: _235  and  _236
REMARK   92  A    between atoms: _241  and  _243
REMARK   93  A    between atoms: _243  and  _244
REMARK   94  A    between atoms: _243  and  _246
REMARK   95  A    between atoms: _246  and  _247
REMARK   96  A    between atoms: _252  and  _253
REMARK   97  A    between atoms: _255  and  _257
REMARK   98  A    between atoms: _257  and  _258
REMARK   99  A    between atoms: _257  and  _260
REMARK  100  A    between atoms: _260  and  _261
REMARK  101  A    between atoms: _266  and  _268
REMARK  102  A    between atoms: _268  and  _269
REMARK  103  A    between atoms: _268  and  _271
REMARK  104  A    between atoms: _271  and  _272
REMARK  105  A    between atoms: _274  and  _276
REMARK  106  A    between atoms: _276  and  _277
REMARK  107  A    between atoms: _276  and  _279
REMARK  108  A    between atoms: _279  and  _280
REMARK  109  A    between atoms: _283  and  _285
REMARK  110  A    between atoms: _285  and  _286
REMARK  111  A    between atoms: _285  and  _288
REMARK  112  A    between atoms: _288  and  _289
REMARK  113  A    between atoms: _292  and  _294
REMARK  114  A    between atoms: _294  and  _295
REMARK  115  A    between atoms: _294  and  _297
REMARK  116  A    between atoms: _297  and  _298
REMARK  117  A    between atoms: _304  and  _306
REMARK  118  A    between atoms: _306  and  _307
REMARK  119  A    between atoms: _306  and  _309
REMARK  120  A    between atoms: _309  and  _310
REMARK                            x       y       z     vdW  Elec       q    Type
REMARK                         _______ _______ _______ _____ _____    ______ ____
ROOT
ATOM      1  CA  PHE A   1      14.062   0.662   7.431  0.00  0.00    +0.017 C 
ENDROOT
BRANCH   1   2
ATOM      2  N   PHE A   1      14.051   0.395   8.868  0.00  0.00    +0.388 N 
ATOM      3  H1  PHE A   1      14.649   1.093   9.354  0.00  0.00    -0.089 HD
ATOM      4  H2  PHE A   1      13.077   0.464   9.225  0.00  0.00    -0.089 HD
ATOM      5  H3  PHE A   1      14.419  -0.562   9.044  0.00  0.00    -0.089 HD
ENDBRANCH   1   2
BRANCH   1   6
ATOM      6  C   PHE A   1      13.190  -0.354   6.716  0.00  0.00    +0.202 C 
ATOM      7  O   PHE A   1      13.334  -1.570   6.909  0.00  0.00    -0.277 OA
ATOM      8  N   ALA A   2      12.285   0.145   5.873  0.00  0.00    -0.301 N 
ATOM      9  H   ALA A   2      12.198   1.176   5.769  0.00  0.00    +0.150 HD
BRANCH   8  10
ATOM     10  CA  ALA A   2      11.418  -0.726   5.097  0.00  0.00    +0.137 C 
ATOM     11  CB  ALA A   2      10.228  -1.193   5.936  0.00  0.00    +0.030 C 
BRANCH  10  12
ATOM     12  C   ALA A   2      10.942   0.001   3.870  0.00  0.00    +0.227 C 
ATOM     13  O   ALA A   2      11.105   1.225   3.761  0.00  0.00    -0.286 OA
ENDBRANCH  10  12
ENDBRANCH   8  10
ENDBRANCH   1   6
BRANCH   1  14
ATOM     14  CB  PHE A   1      15.485   0.592   6.865  0.00  0.00    +0.013 C 
BRANCH  14  15
ATOM     15  CG  PHE A   1      15.551   0.850   5.386  0.00  0.00    -0.024 A 
ATOM     16  CD2 PHE A   1      15.729   2.140   4.907  0.00  0.00    -0.004 A 
ATOM     17  CE2 PHE A   1      15.771   2.394   3.545  0.00  0.00    -0.000 A 
ATOM     18  CZ  PHE A   1      15.633   1.329   2.632  0.00  0.00    -0.000 A 
ATOM     19  CE1 PHE A   1      15.441   0.027   3.106  0.00  0.00    -0.000 A 
ATOM     20  CD1 PHE A   1      15.406  -0.200   4.471  0.00  0.00    -0.004 A 
ENDBRANCH  14  15
ENDBRANCH   1  14
TORSDOF 6
REMARK  Name = ../refined-set-2016/4auj/4auj_pocket.pdb
REMARK  120 active torsions:
REMARK  status: ('A' for Active; 'I' for Inactive)
REMARK    1  A    between atoms: _1  and  _5
REMARK    2  A    between atoms: _5  and  _6
REMARK    3  A    between atoms: _5  and  _8
REMARK    4  A    between atoms: _8  and  _9
REMARK    5  A    between atoms: _15  and  _17
REMARK    6  A    between atoms: _17  and  _18
REMARK    7  A    between atoms: _22  and  _23
REMARK    8  A    between atoms: _28  and  _30
REMARK    9  A    between atoms: _30  and  _31
REMARK   10  A    between atoms: _30  and  _33
REMARK   11  A    between atoms: _33  and  _34
REMARK   12  A    between atoms: _37  and  _39
REMARK   13  A    between atoms: _39  and  _40
REMARK   14  A    between atoms: _42  and  _44
REMARK   15  A    between atoms: _44  and  _45
REMARK   16  A    between atoms: _47  and  _49
REMARK   17  A    between atoms: _49  and  _50
REMARK   18  A    between atoms: _49  and  _52
REMARK   19  A    between atoms: _52  and  _53
REMARK   20  A    between atoms: _58  and  _60
REMARK   21  A    between atoms: _60  and  _61
REMARK   22  A    between atoms: _60  and  _63
REMARK   23  A    between atoms: _63  and  _64
REMARK   24  A    between atoms: _69  and  _71
REMARK   25  A    between atoms: _71  and  _72
REMARK   26  A    between atoms: _71  and  _74
REMARK   27  A    between atoms: _74  and  _75
REMARK   28  A    between atoms: _78  and  _80
REMARK   29  A    between atoms: _80  and  _81
REMARK   30  A    between atoms: _80  and  _83
REMARK   31  A    between atoms: _83  and  _84
REMARK   32  A    between atoms: _89  and  _90
REMARK   33  A    between atoms: _93  and  _94
REMARK   34  A    between atoms: _99  and  _101
REMARK   35  A    between atoms: _101  and  _102
REMARK   36  A    between atoms: _101  and  _104
REMARK   37  A    between atoms: _104  and  _105
REMARK   38  A    between atoms: _105  and  _106
REMARK   39  A    between atoms: _109  and  _111
REMARK   40  A    between atoms: _111  and  _112
REMARK   41  A    between atoms: _111  and  _114
REMARK   42  A    between atoms: _114  and  _115
REMARK   43  A    between atoms: _118  and  _120
REMARK   44  A    between atoms: _120  and  _121
REMARK   45  A    between atoms: _120  and  _123
REMARK   46  A    between atoms: _123  and  _124
REMARK   47  A    between atoms: _127  and  _129
REMARK   48  A    between atoms: _129  and  _130
REMARK   49  A    between atoms: _129  and  _132
REMARK   50  A    between atoms: _132  and  _133
REMARK   51  A    between atoms: _136  and  _138
REMARK   52  A    between atoms: _138  and  _139
REMARK   53  A    between atoms: _138  and  _141
REMARK   54  A    between atoms: _141  and  _142
REMARK   55  A    between atoms: _145  and  _147
REMARK   56  A    between atoms: _147  and  _148
REMARK   57  A    between atoms: _147  and  _150
REMARK   58  A    between atoms: _150  and  _151
REMARK   59  A    between atoms: _156  and  _157
REMARK   60  A    between atoms: _159  and  _161
REMARK   61  A    between atoms: _161  and  _162
REMARK   62  A    between atoms: _161  and  _164
REMARK   63  A    between atoms: _164  and  _165
REMARK   64  A    between atoms: _170  and  _171
REMARK   65  A    between atoms: _173  and  _175
REMARK   66  A    between atoms: _175  and  _176
REMARK   67  A    between atoms: _175  and  _178
REMARK   68  A    between atoms: _178  and  _179
REMARK   69  A    between atoms: _181  and  _183
REMARK   70  A    between atoms: _183  and  _184
REMARK   71  A    between atoms: _183  and  _186
REMARK   72  A    between atoms: _186  and  _187
REMARK   73  A    between atoms: _187  and  _188
REMARK   74  A    between atoms: _188  and  _189
REMARK   75  A    between atoms: _198  and  _200
REMARK   76  A    between atoms: _200  and  _201
REMARK   77  A    between atoms: _200  and  _203
REMARK   78  A    between atoms: _203  and  _204
REMARK   79  A    between atoms: _204  and  _205
REMARK   80  A    between atoms: _210  and  _212
REMARK   81  A    between atoms: _212  and  _213
REMARK   82  A    between atoms: _212  and  _215
REMARK   83  A    between atoms: _215  and  _216
REMARK   84  A    between atoms: _219  and  _221
REMARK   85  A    between atoms: _221  and  _222
REMARK   86  A    between atoms: _221  and  _224
REMARK   87  A    between atoms: _224  and  _225
REMARK   88  A    between atoms: _230  and  _232
REMARK   89  A    between atoms: _232  and  _233
REMARK   90  A    between atoms: _232  and  _235
REMARK   91  A    between atoms: _235  and  _236
REMARK   92  A    between atoms: _241  and  _243
REMARK   93  A    between atoms: _243  and  _244
REMARK   94  A    between atoms: _243  and  _246
REMARK   95  A    between atoms: _246  and  _247
REMARK   96  A    between atoms: _252  and  _253
REMARK   97  A    between atoms: _255  and  _257
REMARK   98  A    between atoms: _257  and  _258
REMARK   99  A    between atoms: _257  and  _260
REMARK  100  A    between atoms: _260  and  _261
REMARK  101  A    between atoms: _266  and  _268
REMARK  102  A    between atoms: _268  and  _269
REMARK  103  A    between atoms: _268  and  _271
REMARK  104  A    between atoms: _271  and  _272
REMARK  105  A    between atoms: _274  and  _276
REMARK  106  A    between atoms: _276  and  _277
REMARK  107  A    between atoms: _276  and  _279
REMARK  108  A    between atoms: _279  and  _280
REMARK  109  A    between atoms: _283  and  _285
REMARK  110  A    between atoms: _285  and  _286
REMARK  111  A    between atoms: _285  and  _288
REMARK  112  A    between atoms: _288  and  _289
REMARK  113  A    between atoms: _292  and  _294
REMARK  114  A    between atoms: _294  and  _295
REMARK  115  A    between atoms: _294  and  _297
REMARK  116  A    between atoms: _297  and  _298
REMARK  117  A    between atoms: _304  and  _306
REMARK  118  A    between atoms: _306  and  _307
REMARK  119  A    between atoms: _306  and  _309
REMARK  120  A    between atoms: _309  and  _310
REMARK                            x       y       z     vdW  Elec       q    Type
REMARK                         _______ _______ _______ _____ _____    ______ ____
ROOT
ATOM      1  CA  ILE A   2      12.498  -4.552   8.341  0.00  0.00    +0.148 C 
ENDROOT
BRANCH   1   3
ATOM      2  C   PRO A   1      11.026  -5.032   6.445  0.00  0.00    +0.239 C 
ATOM      3  N   ILE A   2      11.206  -4.543   7.667  0.00  0.00    -0.297 N 
ATOM      4  H   ILE A   2      10.389  -4.136   8.165  0.00  0.00    +0.150 HD
ATOM      5  O   PRO A   1      11.945  -5.379   5.693  0.00  0.00    -0.274 OA
BRANCH   2   7
ATOM      6  N   PRO A   1       9.398  -5.651   4.657  0.00  0.00    -0.210 NA
ATOM      7  CA  PRO A   1       9.570  -5.112   6.005  0.00  0.00    +0.149 C 
ATOM      8  CB  PRO A   1       8.817  -6.132   6.866  0.00  0.00    +0.028 C 
ATOM      9  CG  PRO A   1       9.088  -7.432   6.166  0.00  0.00    +0.021 C 
ATOM     10  CD  PRO A   1       9.100  -7.098   4.677  0.00  0.00    +0.089 C 
ENDBRANCH   2   7
ENDBRANCH   1   3
BRANCH   1  11
ATOM     11  C   ILE A   2      13.157  -5.903   8.142  0.00  0.00    +0.241 C 
ATOM     12  O   ILE A   2      12.504  -6.944   8.331  0.00  0.00    -0.273 OA
ATOM     13  N   GLY A   3      14.428  -5.885   7.729  0.00  0.00    -0.295 N 
ATOM     14  H   GLY A   3      14.885  -4.969   7.546  0.00  0.00    +0.150 HD
BRANCH  13  15
ATOM     15  CA  GLY A   3      15.191  -7.106   7.527  0.00  0.00    +0.176 C 
BRANCH  15  16
ATOM     16  C   GLY A   3      15.248  -7.581   6.089  0.00  0.00    +0.243 C 
ATOM     17  O   GLY A   3      15.986  -8.513   5.773  0.00  0.00    -0.273 OA
ATOM     18  N   GLY A   4      14.459  -6.959   5.214  0.00  0.00    -0.296 N 
ATOM     19  H   GLY A   4      13.782  -6.240   5.541  0.00  0.00    +0.150 HD
BRANCH  18  20
ATOM     20  CA  GLY A   4      14.547  -7.288   3.807  0.00  0.00    +0.163 C 
BRANCH  20  21
ATOM     21  C   GLY A   4      13.624  -8.408   3.380  0.00  0.00    +0.229 C 
ATOM     22  O   GLY A   4      12.795  -8.875   4.151  0.00  0.00    -0.286 OA
ENDBRANCH  20  21
ENDBRANCH  18  20
ENDBRANCH  15  16
ENDBRANCH  13  15
ENDBRANCH   1  11
BRANCH   1  23
ATOM     23  CB  ILE A   2      12.327  -4.252   9.837  0.00  0.00    +0.027 C 
ATOM     24  CG2 ILE A   2      13.568  -4.677  10.616  0.00  0.00    +0.002 C 
BRANCH  23  25
ATOM     25  CG1 ILE A   2      12.067  -2.759  10.043  0.00  0.00    +0.002 C 
ATOM     26  CD1 ILE A   2      11.431  -2.452  11.394  0.00  0.00    +0.000 C 
ENDBRANCH  23  25
ENDBRANCH   1  23
TORSDOF 9
REMARK  Name = ../refined-set-2016/4auj/4auj_pocket.pdb
REMARK  120 active torsions:
REMARK  status: ('A' for Active; 'I' for Inactive)
REMARK    1  A    between atoms: _1  and  _5
REMARK    2  A    between atoms: _5  and  _6
REMARK    3  A    between atoms: _5  and  _8
REMARK    4  A    between atoms: _8  and  _9
REMARK    5  A    between atoms: _15  and  _17
REMARK    6  A    between atoms: _17  and  _18
REMARK    7  A    between atoms: _22  and  _23
REMARK    8  A    between atoms: _28  and  _30
REMARK    9  A    between atoms: _30  and  _31
REMARK   10  A    between atoms: _30  and  _33
REMARK   11  A    between atoms: _33  and  _34
REMARK   12  A    between atoms: _37  and  _39
REMARK   13  A    between atoms: _39  and  _40
REMARK   14  A    between atoms: _42  and  _44
REMARK   15  A    between atoms: _44  and  _45
REMARK   16  A    between atoms: _47  and  _49
REMARK   17  A    between atoms: _49  and  _50
REMARK   18  A    between atoms: _49  and  _52
REMARK   19  A    between atoms: _52  and  _53
REMARK   20  A    between atoms: _58  and  _60
REMARK   21  A    between atoms: _60  and  _61
REMARK   22  A    between atoms: _60  and  _63
REMARK   23  A    between atoms: _63  and  _64
REMARK   24  A    between atoms: _69  and  _71
REMARK   25  A    between atoms: _71  and  _72
REMARK   26  A    between atoms: _71  and  _74
REMARK   27  A    between atoms: _74  and  _75
REMARK   28  A    between atoms: _78  and  _80
REMARK   29  A    between atoms: _80  and  _81
REMARK   30  A    between atoms: _80  and  _83
REMARK   31  A    between atoms: _83  and  _84
REMARK   32  A    between atoms: _89  and  _90
REMARK   33  A    between atoms: _93  and  _94
REMARK   34  A    between atoms: _99  and  _101
REMARK   35  A    between atoms: _101  and  _102
REMARK   36  A    between atoms: _101  and  _104
REMARK   37  A    between atoms: _104  and  _105
REMARK   38  A    between atoms: _105  and  _106
REMARK   39  A    between atoms: _109  and  _111
REMARK   40  A    between atoms: _111  and  _112
REMARK   41  A    between atoms: _111  and  _114
REMARK   42  A    between atoms: _114  and  _115
REMARK   43  A    between atoms: _118  and  _120
REMARK   44  A    between atoms: _120  and  _121
REMARK   45  A    between atoms: _120  and  _123
REMARK   46  A    between atoms: _123  and  _124
REMARK   47  A    between atoms: _127  and  _129
REMARK   48  A    between atoms: _129  and  _130
REMARK   49  A    between atoms: _129  and  _132
REMARK   50  A    between atoms: _132  and  _133
REMARK   51  A    between atoms: _136  and  _138
REMARK   52  A    between atoms: _138  and  _139
REMARK   53  A    between atoms: _138  and  _141
REMARK   54  A    between atoms: _141  and  _142
REMARK   55  A    between atoms: _145  and  _147
REMARK   56  A    between atoms: _147  and  _148
REMARK   57  A    between atoms: _147  and  _150
REMARK   58  A    between atoms: _150  and  _151
REMARK   59  A    between atoms: _156  and  _157
REMARK   60  A    between atoms: _159  and  _161
REMARK   61  A    between atoms: _161  and  _162
REMARK   62  A    between atoms: _161  and  _164
REMARK   63  A    between atoms: _164  and  _165
REMARK   64  A    between atoms: _170  and  _171
REMARK   65  A    between atoms: _173  and  _175
REMARK   66  A    between atoms: _175  and  _176
REMARK   67  A    between atoms: _175  and  _178
REMARK   68  A    between atoms: _178  and  _179
REMARK   69  A    between atoms: _181  and  _183
REMARK   70  A    between atoms: _183  and  _184
REMARK   71  A    between atoms: _183  and  _186
REMARK   72  A    between atoms: _186  and  _187
REMARK   73  A    between atoms: _187  and  _188
REMARK   74  A    between atoms: _188  and  _189
REMARK   75  A    between atoms: _198  and  _200
REMARK   76  A    between atoms: _200  and  _201
REMARK   77  A    between atoms: _200  and  _203
REMARK   78  A    between atoms: _203  and  _204
REMARK   79  A    between atoms: _204  and  _205
REMARK   80  A    between atoms: _210  and  _212
REMARK   81  A    between atoms: _212  and  _213
REMARK   82  A    between atoms: _212  and  _215
REMARK   83  A    between atoms: _215  and  _216
REMARK   84  A    between atoms: _219  and  _221
REMARK   85  A    between atoms: _221  and  _222
REMARK   86  A    between atoms: _221  and  _224
REMARK   87  A    between atoms: _224  and  _225
REMARK   88  A    between atoms: _230  and  _232
REMARK   89  A    between atoms: _232  and  _233
REMARK   90  A    between atoms: _232  and  _235
REMARK   91  A    between atoms: _235  and  _236
REMARK   92  A    between atoms: _241  and  _243
REMARK   93  A    between atoms: _243  and  _244
REMARK   94  A    between atoms: _243  and  _246
REMARK   95  A    between atoms: _246  and  _247
REMARK   96  A    between atoms: _252  and  _253
REMARK   97  A    between atoms: _255  and  _257
REMARK   98  A    between atoms: _257  and  _258
REMARK   99  A    between atoms: _257  and  _260
REMARK  100  A    between atoms: _260  and  _261
REMARK  101  A    between atoms: _266  and  _268
REMARK  102  A    between atoms: _268  and  _269
REMARK  103  A    between atoms: _268  and  _271
REMARK  104  A    between atoms: _271  and  _272
REMARK  105  A    between atoms: _274  and  _276
REMARK  106  A    between atoms: _276  and  _277
REMARK  107  A    between atoms: _276  and  _279
REMARK  108  A    between atoms: _279  and  _280
REMARK  109  A    between atoms: _283  and  _285
REMARK  110  A    between atoms: _285  and  _286
REMARK  111  A    between atoms: _285  and  _288
REMARK  112  A    between atoms: _288  and  _289
REMARK  113  A    between atoms: _292  and  _294
REMARK  114  A    between atoms: _294  and  _295
REMARK  115  A    between atoms: _294  and  _297
REMARK  116  A    between atoms: _297  and  _298
REMARK  117  A    between atoms: _304  and  _306
REMARK  118  A    between atoms: _306  and  _307
REMARK  119  A    between atoms: _306  and  _309
REMARK  120  A    between atoms: _309  and  _310
REMARK                            x       y       z     vdW  Elec       q    Type
REMARK                         _______ _______ _______ _____ _____    ______ ____
ROOT
ATOM      1  CA  GLU A   6      16.302  10.451  15.296  0.00  0.00    +0.149 C 
ENDROOT
BRANCH   1   3
ATOM      2  C   PRO A   5      16.592   9.645  13.022  0.00  0.00    +0.241 C 
ATOM      3  N   GLU A   6      15.878   9.676  14.144  0.00  0.00    -0.297 N 
ATOM      4  H   GLU A   6      14.994   9.131  14.197  0.00  0.00    +0.150 HD
ATOM      5  O   PRO A   5      17.586  10.352  12.830  0.00  0.00    -0.273 OA
BRANCH   2   9
ATOM      6  C   TYR A   4      15.512   6.753  13.263  0.00  0.00    +0.244 C 
ATOM      7  O   TYR A   4      16.644   6.715  13.757  0.00  0.00    -0.273 OA
ATOM      8  N   PRO A   5      15.132   7.719  12.407  0.00  0.00    -0.272 N 
ATOM      9  CA  PRO A   5      16.118   8.693  11.924  0.00  0.00    +0.152 C 
ATOM     10  CB  PRO A   5      15.345   9.472  10.858  0.00  0.00    +0.031 C 
ATOM     11  CG  PRO A   5      13.921   9.382  11.301  0.00  0.00    +0.024 C 
ATOM     12  CD  PRO A   5      13.791   7.986  11.849  0.00  0.00    +0.094 C 
BRANCH   6  13
ATOM     13  CA  TYR A   4      14.483   5.685  13.621  0.00  0.00    +0.153 C 
BRANCH  13  16
ATOM     14  C   ASP A   3      12.748   4.556  12.343  0.00  0.00    +0.241 C 
ATOM     15  O   ASP A   3      11.950   4.626  13.277  0.00  0.00    -0.273 OA
ATOM     16  N   TYR A   4      13.984   5.044  12.408  0.00  0.00    -0.297 N 
ATOM     17  H   TYR A   4      14.607   4.967  11.579  0.00  0.00    +0.150 HD
BRANCH  14  18
ATOM     18  CA  ASP A   3      12.341   3.861  11.053  0.00  0.00    +0.160 C 
BRANCH  18  20
ATOM     19  C   ASN A   2      13.187   5.056   9.125  0.00  0.00    +0.241 C 
ATOM     20  N   ASP A   3      13.266   4.005   9.933  0.00  0.00    -0.297 N 
ATOM     21  H   ASP A   3      13.992   3.279   9.767  0.00  0.00    +0.150 HD
ATOM     22  O   ASN A   2      12.371   5.956   9.307  0.00  0.00    -0.273 OA
BRANCH  19  23
ATOM     23  CA  ASN A   2      14.155   5.114   7.935  0.00  0.00    +0.158 C 
BRANCH  23  25
ATOM     24  C   HIS A   1      12.844   4.542   5.907  0.00  0.00    +0.239 C 
ATOM     25  N   ASN A   2      13.386   5.431   6.740  0.00  0.00    -0.297 N 
ATOM     26  H   ASN A   2      13.248   6.437   6.517  0.00  0.00    +0.150 HD
ATOM     27  O   HIS A   1      12.948   3.309   6.021  0.00  0.00    -0.274 OA
BRANCH  24  28
ATOM     28  CA  HIS A   1      12.008   5.148   4.792  0.00  0.00    +0.151 C 
BRANCH  28  29
ATOM     29  N   HIS A   1      11.869   4.196   3.704  0.00  0.00    -0.238 NA
ATOM     30  H   HIS A   1      11.948   3.177   3.894  0.00  0.00    +0.142 HD
ENDBRANCH  28  29
BRANCH  28  31
ATOM     31  CB  HIS A   1      10.630   5.543   5.348  0.00  0.00    +0.074 C 
BRANCH  31  32
ATOM     32  CG  HIS A   1       9.986   4.449   6.131  0.00  0.00    +0.082 A 
ATOM     33  CD2 HIS A   1      10.002   4.178   7.458  0.00  0.00    +0.115 A 
ATOM     34  NE2 HIS A   1       9.297   3.015   7.641  0.00  0.00    -0.221 NA
ATOM     35  CE1 HIS A   1       8.878   2.576   6.466  0.00  0.00    +0.199 A 
ATOM     36  ND1 HIS A   1       9.288   3.421   5.536  0.00  0.00    -0.227 NA
ENDBRANCH  31  32
ENDBRANCH  28  31
ENDBRANCH  24  28
ENDBRANCH  23  25
BRANCH  23  37
ATOM     37  CB  ASN A   2      15.205   6.235   8.089  0.00  0.00    +0.114 C 
BRANCH  37  38
ATOM     38  CG  ASN A   2      16.145   6.058   9.268  0.00  0.00    +0.222 C 
ATOM     39  OD1 ASN A   2      15.804   5.458  10.285  0.00  0.00    -0.275 OA
ATOM     40  ND2 ASN A   2      17.329   6.649   9.153  0.00  0.00    -0.329 N 
ATOM     41 HD21 ASN A   2      18.006   6.614   9.941  0.00  0.00    +0.145 HD
ATOM     42 HD22 ASN A   2      17.579   7.147   8.275  0.00  0.00    +0.145 HD
ENDBRANCH  37  38
ENDBRANCH  23  37
ENDBRANCH  19  23
ENDBRANCH  18  20
BRANCH  18  43
ATOM     43  CB  ASP A   3      12.045   2.386  11.344  0.00  0.00    +0.143 C 
BRANCH  43  44
ATOM     44  CG  ASP A   3      11.073   1.797  10.364  0.00  0.00    +0.367 C 
ATOM     45  OD2 ASP A   3       9.917   2.280  10.310  0.00  0.00    -0.246 OA
ATOM     46  OD1 ASP A   3      11.449   0.859   9.638  0.00  0.00    -0.246 OA
ENDBRANCH  43  44
ENDBRANCH  18  43
ENDBRANCH  14  18
ENDBRANCH  13  16
BRANCH  13  47
ATOM     47  CB  TYR A   4      15.107   4.624  14.537  0.00  0.00    +0.055 C 
BRANCH  47  48
ATOM     48  CG  TYR A   4      15.332   5.013  15.985  0.00  0.00    -0.020 A 
ATOM     49  CD2 TYR A   4      16.147   4.228  16.790  0.00  0.00    -0.001 A 
ATOM     50  CE2 TYR A   4      16.370   4.541  18.116  0.00  0.00    +0.036 A 
ATOM     51  CZ  TYR A   4      15.793   5.665  18.661  0.00  0.00    +0.134 A 
ATOM     52  CE1 TYR A   4      14.976   6.477  17.890  0.00  0.00    +0.036 A 
ATOM     53  CD1 TYR A   4      14.753   6.151  16.546  0.00  0.00    -0.001 A 
BRANCH  51  54
ATOM     54  OH  TYR A   4      16.039   5.955  19.991  0.00  0.00    -0.506 OA
ATOM     55  HH  TYR A   4      15.719   5.207  20.555  0.00  0.00    +0.292 HD
ENDBRANCH  51  54
ENDBRANCH  47  48
ENDBRANCH  13  47
ENDBRANCH   6  13
ENDBRANCH   2   9
ENDBRANCH   1   3
BRANCH   1  56
ATOM     56  C   GLU A   6      17.663   9.991  15.828  0.00  0.00    +0.241 C 
ATOM     57  O   GLU A   6      18.379  10.767  16.462  0.00  0.00    -0.273 OA
ATOM     58  N   THR A   7      18.023   8.734  15.563  0.00  0.00    -0.295 N 
ATOM     59  H   THR A   7      17.422   8.157  14.941  0.00  0.00    +0.150 HD
BRANCH  58  60
ATOM     60  CA  THR A   7      19.238   8.146  16.122  0.00  0.00    +0.176 C 
BRANCH  60  61
ATOM     61  C   THR A   7      20.086   7.432  15.064  0.00  0.00    +0.243 C 
ATOM     62  O   THR A   7      21.313   7.355  15.182  0.00  0.00    -0.273 OA
ATOM     63  N   ILE A   8      19.438   6.922  14.021  0.00  0.00    -0.297 N 
ATOM     64  H   ILE A   8      18.430   7.142  13.892  0.00  0.00    +0.150 HD
BRANCH  63  65
ATOM     65  CA  ILE A   8      20.112   6.057  13.050  0.00  0.00    +0.149 C 
BRANCH  65  66
ATOM     66  C   ILE A   8      20.083   6.688  11.663  0.00  0.00    +0.241 C 
ATOM     67  O   ILE A   8      19.083   7.282  11.271  0.00  0.00    -0.273 OA
ATOM     68  N   THR A   9      21.186   6.577  10.927  0.00  0.00    -0.295 N 
ATOM     69  H   THR A   9      22.057   6.218  11.369  0.00  0.00    +0.150 HD
BRANCH  68  70
ATOM     70  CA  THR A   9      21.204   6.944   9.524  0.00  0.00    +0.176 C 
BRANCH  70  71
ATOM     71  C   THR A   9      21.268   5.656   8.713  0.00  0.00    +0.243 C 
ATOM     72  O   THR A   9      22.088   4.779   9.004  0.00  0.00    -0.273 OA
ATOM     73  N   ASP A  10      20.398   5.544   7.710  0.00  0.00    -0.296 N 
ATOM     74  H   ASP A  10      19.710   6.309   7.556  0.00  0.00    +0.150 HD
BRANCH  73  75
ATOM     75  CA  ASP A  10      20.375   4.393   6.823  0.00  0.00    +0.160 C 
BRANCH  75  76
ATOM     76  C   ASP A  10      21.085   4.716   5.516  0.00  0.00    +0.241 C 
ATOM     77  O   ASP A  10      21.075   5.850   5.039  0.00  0.00    -0.273 OA
ATOM     78  N   TYR A  11      21.693   3.690   4.937  0.00  0.00    -0.298 N 
ATOM     79  H   TYR A  11      21.634   2.755   5.389  0.00  0.00    +0.150 HD
BRANCH  78  80
ATOM     80  CA  TYR A  11      22.440   3.818   3.693  0.00  0.00    +0.141 C 
BRANCH  80  81
ATOM     81  C   TYR A  11      21.899   2.780   2.735  0.00  0.00    +0.227 C 
ATOM     82  O   TYR A  11      21.700   1.622   3.113  0.00  0.00    -0.286 OA
ENDBRANCH  80  81
BRANCH  80  83
ATOM     83  CB  TYR A  11      23.931   3.550   3.934  0.00  0.00    +0.054 C 
BRANCH  83  84
ATOM     84  CG  TYR A  11      24.544   4.435   4.980  0.00  0.00    -0.020 A 
ATOM     85  CD2 TYR A  11      25.044   3.890   6.147  0.00  0.00    -0.001 A 
ATOM     86  CE2 TYR A  11      25.605   4.685   7.126  0.00  0.00    +0.036 A 
ATOM     87  CZ  TYR A  11      25.657   6.051   6.928  0.00  0.00    +0.134 A 
ATOM     88  CE1 TYR A  11      25.156   6.621   5.777  0.00  0.00    +0.036 A 
ATOM     89  CD1 TYR A  11      24.613   5.815   4.803  0.00  0.00    -0.001 A 
BRANCH  87  90
ATOM     90  OH  TYR A  11      26.212   6.858   7.896  0.00  0.00    -0.506 OA
ATOM     91  HH  TYR A  11      26.171   7.802   7.600  0.00  0.00    +0.292 HD
ENDBRANCH  87  90
ENDBRANCH  83  84
ENDBRANCH  80  83
ENDBRANCH  78  80
ENDBRANCH  75  76
BRANCH  75  92
ATOM     92  CB  ASP A  10      18.924   3.975   6.539  0.00  0.00    +0.143 C 
BRANCH  92  93
ATOM     93  CG  ASP A  10      18.271   3.329   7.727  0.00  0.00    +0.367 C 
ATOM     94  OD2 ASP A  10      18.983   2.623   8.465  0.00  0.00    -0.246 OA
ATOM     95  OD1 ASP A  10      17.041   3.512   7.922  0.00  0.00    -0.246 OA
ENDBRANCH  92  93
ENDBRANCH  75  92
ENDBRANCH  73  75
ENDBRANCH  70  71
BRANCH  70  96
ATOM     96  CB  THR A   9      22.413   7.823   9.204  0.00  0.00    +0.137 C 
ATOM     97  CG2 THR A   9      22.434   8.201   7.737  0.00  0.00    +0.034 C 
BRANCH  96  98
ATOM     98  OG1 THR A   9      22.329   9.017  10.003  0.00  0.00    -0.382 OA
ATOM     99  HG1 THR A   9      21.492   9.499   9.787  0.00  0.00    +0.210 HD
ENDBRANCH  96  98
ENDBRANCH  70  96
ENDBRANCH  68  70
ENDBRANCH  65  66
BRANCH  65 100
ATOM    100  CB  ILE A   8      19.420   4.663  12.976  0.00  0.00    +0.027 C 
ATOM    101  CG2 ILE A   8      20.069   3.770  11.918  0.00  0.00    +0.002 C 
BRANCH 100 102
ATOM    102  CG1 ILE A   8      19.403   4.005  14.360  0.00  0.00    +0.002 C 
ATOM    103  CD1 ILE A   8      18.766   2.617  14.372  0.00  0.00    +0.000 C 
ENDBRANCH 100 102
ENDBRANCH  65 100
ENDBRANCH  63  65
ENDBRANCH  60  61
BRANCH  60 104
ATOM    104  CB  THR A   7      18.866   7.160  17.269  0.00  0.00    +0.137 C 
ATOM    105  CG2 THR A   7      20.061   6.328  17.734  0.00  0.00    +0.034 C 
BRANCH 104 106
ATOM    106  OG1 THR A   7      18.359   7.906  18.384  0.00  0.00    -0.382 OA
ATOM    107  HG1 THR A   7      19.053   8.538  18.700  0.00  0.00    +0.210 HD
ENDBRANCH 104 106
ENDBRANCH  60 104
ENDBRANCH  58  60
ENDBRANCH   1  56
BRANCH   1 108
ATOM    108  CB  GLU A   6      15.247  10.355  16.404  0.00  0.00    +0.041 C 
BRANCH 108 109
ATOM    109  CG  GLU A   6      13.912  10.998  16.037  0.00  0.00    +0.116 C 
BRANCH 109 110
ATOM    110  CD  GLU A   6      12.980  10.099  15.226  0.00  0.00    +0.365 C 
ATOM    111  OE2 GLU A   6      13.336   8.938  14.924  0.00  0.00    -0.246 OA
ATOM    112  OE1 GLU A   6      11.872  10.568  14.880  0.00  0.00    -0.246 OA
ENDBRANCH 109 110
ENDBRANCH 108 109
ENDBRANCH   1 108
TORSDOF 44
REMARK  Name = ../refined-set-2016/4auj/4auj_pocket.pdb
REMARK  120 active torsions:
REMARK  status: ('A' for Active; 'I' for Inactive)
REMARK    1  A    between atoms: _1  and  _5
REMARK    2  A    between atoms: _5  and  _6
REMARK    3  A    between atoms: _5  and  _8
REMARK    4  A    between atoms: _8  and  _9
REMARK    5  A    between atoms: _15  and  _17
REMARK    6  A    between atoms: _17  and  _18
REMARK    7  A    between atoms: _22  and  _23
REMARK    8  A    between atoms: _28  and  _30
REMARK    9  A    between atoms: _30  and  _31
REMARK   10  A    between atoms: _30  and  _33
REMARK   11  A    between atoms: _33  and  _34
REMARK   12  A    between atoms: _37  and  _39
REMARK   13  A    between atoms: _39  and  _40
REMARK   14  A    between atoms: _42  and  _44
REMARK   15  A    between atoms: _44  and  _45
REMARK   16  A    between atoms: _47  and  _49
REMARK   17  A    between atoms: _49  and  _50
REMARK   18  A    between atoms: _49  and  _52
REMARK   19  A    between atoms: _52  and  _53
REMARK   20  A    between atoms: _58  and  _60
REMARK   21  A    between atoms: _60  and  _61
REMARK   22  A    between atoms: _60  and  _63
REMARK   23  A    between atoms: _63  and  _64
REMARK   24  A    between atoms: _69  and  _71
REMARK   25  A    between atoms: _71  and  _72
REMARK   26  A    between atoms: _71  and  _74
REMARK   27  A    between atoms: _74  and  _75
REMARK   28  A    between atoms: _78  and  _80
REMARK   29  A    between atoms: _80  and  _81
REMARK   30  A    between atoms: _80  and  _83
REMARK   31  A    between atoms: _83  and  _84
REMARK   32  A    between atoms: _89  and  _90
REMARK   33  A    between atoms: _93  and  _94
REMARK   34  A    between atoms: _99  and  _101
REMARK   35  A    between atoms: _101  and  _102
REMARK   36  A    between atoms: _101  and  _104
REMARK   37  A    between atoms: _104  and  _105
REMARK   38  A    between atoms: _105  and  _106
REMARK   39  A    between atoms: _109  and  _111
REMARK   40  A    between atoms: _111  and  _112
REMARK   41  A    between atoms: _111  and  _114
REMARK   42  A    between atoms: _114  and  _115
REMARK   43  A    between atoms: _118  and  _120
REMARK   44  A    between atoms: _120  and  _121
REMARK   45  A    between atoms: _120  and  _123
REMARK   46  A    between atoms: _123  and  _124
REMARK   47  A    between atoms: _127  and  _129
REMARK   48  A    between atoms: _129  and  _130
REMARK   49  A    between atoms: _129  and  _132
REMARK   50  A    between atoms: _132  and  _133
REMARK   51  A    between atoms: _136  and  _138
REMARK   52  A    between atoms: _138  and  _139
REMARK   53  A    between atoms: _138  and  _141
REMARK   54  A    between atoms: _141  and  _142
REMARK   55  A    between atoms: _145  and  _147
REMARK   56  A    between atoms: _147  and  _148
REMARK   57  A    between atoms: _147  and  _150
REMARK   58  A    between atoms: _150  and  _151
REMARK   59  A    between atoms: _156  and  _157
REMARK   60  A    between atoms: _159  and  _161
REMARK   61  A    between atoms: _161  and  _162
REMARK   62  A    between atoms: _161  and  _164
REMARK   63  A    between atoms: _164  and  _165
REMARK   64  A    between atoms: _170  and  _171
REMARK   65  A    between atoms: _173  and  _175
REMARK   66  A    between atoms: _175  and  _176
REMARK   67  A    between atoms: _175  and  _178
REMARK   68  A    between atoms: _178  and  _179
REMARK   69  A    between atoms: _181  and  _183
REMARK   70  A    between atoms: _183  and  _184
REMARK   71  A    between atoms: _183  and  _186
REMARK   72  A    between atoms: _186  and  _187
REMARK   73  A    between atoms: _187  and  _188
REMARK   74  A    between atoms: _188  and  _189
REMARK   75  A    between atoms: _198  and  _200
REMARK   76  A    between atoms: _200  and  _201
REMARK   77  A    between atoms: _200  and  _203
REMARK   78  A    between atoms: _203  and  _204
REMARK   79  A    between atoms: _204  and  _205
REMARK   80  A    between atoms: _210  and  _212
REMARK   81  A    between atoms: _212  and  _213
REMARK   82  A    between atoms: _212  and  _215
REMARK   83  A    between atoms: _215  and  _216
REMARK   84  A    between atoms: _219  and  _221
REMARK   85  A    between atoms: _221  and  _222
REMARK   86  A    between atoms: _221  and  _224
REMARK   87  A    between atoms: _224  and  _225
REMARK   88  A    between atoms: _230  and  _232
REMARK   89  A    between atoms: _232  and  _233
REMARK   90  A    between atoms: _232  and  _235
REMARK   91  A    between atoms: _235  and  _236
REMARK   92  A    between atoms: _241  and  _243
REMARK   93  A    between atoms: _243  and  _244
REMARK   94  A    between atoms: _243  and  _246
REMARK   95  A    between atoms: _246  and  _247
REMARK   96  A    between atoms: _252  and  _253
REMARK   97  A    between atoms: _255  and  _257
REMARK   98  A    between atoms: _257  and  _258
REMARK   99  A    between atoms: _257  and  _260
REMARK  100  A    between atoms: _260  and  _261
REMARK  101  A    between atoms: _266  and  _268
REMARK  102  A    between atoms: _268  and  _269
REMARK  103  A    between atoms: _268  and  _271
REMARK  104  A    between atoms: _271  and  _272
REMARK  105  A    between atoms: _274  and  _276
REMARK  106  A    between atoms: _276  and  _277
REMARK  107  A    between atoms: _276  and  _279
REMARK  108  A    between atoms: _279  and  _280
REMARK  109  A    between atoms: _283  and  _285
REMARK  110  A    between atoms: _285  and  _286
REMARK  111  A    between atoms: _285  and  _288
REMARK  112  A    between atoms: _288  and  _289
REMARK  113  A    between atoms: _292  and  _294
REMARK  114  A    between atoms: _294  and  _295
REMARK  115  A    between atoms: _294  and  _297
REMARK  116  A    between atoms: _297  and  _298
REMARK  117  A    between atoms: _304  and  _306
REMARK  118  A    between atoms: _306  and  _307
REMARK  119  A    between atoms: _306  and  _309
REMARK  120  A    between atoms: _309  and  _310
REMARK                            x       y       z     vdW  Elec       q    Type
REMARK                         _______ _______ _______ _____ _____    ______ ____
ROOT
ATOM      1  CG  TYR A   1      16.737   6.228   2.521  0.00  0.00    -0.020 A 
ATOM      2  CD2 TYR A   1      15.386   6.240   2.200  0.00  0.00    -0.001 A 
ATOM      3  CE2 TYR A   1      14.962   6.064   0.889  0.00  0.00    +0.036 A 
ATOM      4  CZ  TYR A   1      15.893   5.866  -0.107  0.00  0.00    +0.134 A 
ATOM      5  CE1 TYR A   1      17.236   5.852   0.177  0.00  0.00    +0.036 A 
ATOM      6  CD1 TYR A   1      17.653   6.032   1.489  0.00  0.00    -0.001 A 
ENDROOT
BRANCH   4   7
ATOM      7  OH  TYR A   1      15.502   5.697  -1.417  0.00  0.00    -0.506 OA
ATOM      8  HH  TYR A   1      15.007   6.500  -1.719  0.00  0.00    +0.292 HD
ENDBRANCH   4   7
BRANCH   1   9
ATOM      9  CB  TYR A   1      17.204   6.441   3.955  0.00  0.00    +0.051 C 
BRANCH   9  10
ATOM     10  CA  TYR A   1      17.956   7.773   4.149  0.00  0.00    +0.137 C 
BRANCH  10  11
ATOM     11  N   TYR A   1      19.343   7.644   3.721  0.00  0.00    -0.239 NA
ATOM     12  H   TYR A   1      19.916   6.857   4.088  0.00  0.00    +0.142 HD
ENDBRANCH  10  11
BRANCH  10  13
ATOM     13  C   TYR A   1      17.948   8.253   5.601  0.00  0.00    +0.224 C 
ATOM     14  O   TYR A   1      18.356   7.527   6.517  0.00  0.00    -0.287 OA
ENDBRANCH  10  13
ENDBRANCH   9  10
ENDBRANCH   1   9
TORSDOF 5
REMARK  Name = ../refined-set-2016/4auj/4auj_pocket.pdb
REMARK  120 active torsions:
REMARK  status: ('A' for Active; 'I' for Inactive)
REMARK    1  A    between atoms: _1  and  _5
REMARK    2  A    between atoms: _5  and  _6
REMARK    3  A    between atoms: _5  and  _8
REMARK    4  A    between atoms: _8  and  _9
REMARK    5  A    between atoms: _15  and  _17
REMARK    6  A    between atoms: _17  and  _18
REMARK    7  A    between atoms: _22  and  _23
REMARK    8  A    between atoms: _28  and  _30
REMARK    9  A    between atoms: _30  and  _31
REMARK   10  A    between atoms: _30  and  _33
REMARK   11  A    between atoms: _33  and  _34
REMARK   12  A    between atoms: _37  and  _39
REMARK   13  A    between atoms: _39  and  _40
REMARK   14  A    between atoms: _42  and  _44
REMARK   15  A    between atoms: _44  and  _45
REMARK   16  A    between atoms: _47  and  _49
REMARK   17  A    between atoms: _49  and  _50
REMARK   18  A    between atoms: _49  and  _52
REMARK   19  A    between atoms: _52  and  _53
REMARK   20  A    between atoms: _58  and  _60
REMARK   21  A    between atoms: _60  and  _61
REMARK   22  A    between atoms: _60  and  _63
REMARK   23  A    between atoms: _63  and  _64
REMARK   24  A    between atoms: _69  and  _71
REMARK   25  A    between atoms: _71  and  _72
REMARK   26  A    between atoms: _71  and  _74
REMARK   27  A    between atoms: _74  and  _75
REMARK   28  A    between atoms: _78  and  _80
REMARK   29  A    between atoms: _80  and  _81
REMARK   30  A    between atoms: _80  and  _83
REMARK   31  A    between atoms: _83  and  _84
REMARK   32  A    between atoms: _89  and  _90
REMARK   33  A    between atoms: _93  and  _94
REMARK   34  A    between atoms: _99  and  _101
REMARK   35  A    between atoms: _101  and  _102
REMARK   36  A    between atoms: _101  and  _104
REMARK   37  A    between atoms: _104  and  _105
REMARK   38  A    between atoms: _105  and  _106
REMARK   39  A    between atoms: _109  and  _111
REMARK   40  A    between atoms: _111  and  _112
REMARK   41  A    between atoms: _111  and  _114
REMARK   42  A    between atoms: _114  and  _115
REMARK   43  A    between atoms: _118  and  _120
REMARK   44  A    between atoms: _120  and  _121
REMARK   45  A    between atoms: _120  and  _123
REMARK   46  A    between atoms: _123  and  _124
REMARK   47  A    between atoms: _127  and  _129
REMARK   48  A    between atoms: _129  and  _130
REMARK   49  A    between atoms: _129  and  _132
REMARK   50  A    between atoms: _132  and  _133
REMARK   51  A    between atoms: _136  and  _138
REMARK   52  A    between atoms: _138  and  _139
REMARK   53  A    between atoms: _138  and  _141
REMARK   54  A    between atoms: _141  and  _142
REMARK   55  A    between atoms: _145  and  _147
REMARK   56  A    between atoms: _147  and  _148
REMARK   57  A    between atoms: _147  and  _150
REMARK   58  A    between atoms: _150  and  _151
REMARK   59  A    between atoms: _156  and  _157
REMARK   60  A    between atoms: _159  and  _161
REMARK   61  A    between atoms: _161  and  _162
REMARK   62  A    between atoms: _161  and  _164
REMARK   63  A    between atoms: _164  and  _165
REMARK   64  A    between atoms: _170  and  _171
REMARK   65  A    between atoms: _173  and  _175
REMARK   66  A    between atoms: _175  and  _176
REMARK   67  A    between atoms: _175  and  _178
REMARK   68  A    between atoms: _178  and  _179
REMARK   69  A    between atoms: _181  and  _183
REMARK   70  A    between atoms: _183  and  _184
REMARK   71  A    between atoms: _183  and  _186
REMARK   72  A    between atoms: _186  and  _187
REMARK   73  A    between atoms: _187  and  _188
REMARK   74  A    between atoms: _188  and  _189
REMARK   75  A    between atoms: _198  and  _200
REMARK   76  A    between atoms: _200  and  _201
REMARK   77  A    between atoms: _200  and  _203
REMARK   78  A    between atoms: _203  and  _204
REMARK   79  A    between atoms: _204  and  _205
REMARK   80  A    between atoms: _210  and  _212
REMARK   81  A    between atoms: _212  and  _213
REMARK   82  A    between atoms: _212  and  _215
REMARK   83  A    between atoms: _215  and  _216
REMARK   84  A    between atoms: _219  and  _221
REMARK   85  A    between atoms: _221  and  _222
REMARK   86  A    between atoms: _221  and  _224
REMARK   87  A    between atoms: _224  and  _225
REMARK   88  A    between atoms: _230  and  _232
REMARK   89  A    between atoms: _232  and  _233
REMARK   90  A    between atoms: _232  and  _235
REMARK   91  A    between atoms: _235  and  _236
REMARK   92  A    between atoms: _241  and  _243
REMARK   93  A    between atoms: _243  and  _244
REMARK   94  A    between atoms: _243  and  _246
REMARK   95  A    between atoms: _246  and  _247
REMARK   96  A    between atoms: _252  and  _253
REMARK   97  A    between atoms: _255  and  _257
REMARK   98  A    between atoms: _257  and  _258
REMARK   99  A    between atoms: _257  and  _260
REMARK  100  A    between atoms: _260  and  _261
REMARK  101  A    between atoms: _266  and  _268
REMARK  102  A    between atoms: _268  and  _269
REMARK  103  A    between atoms: _268  and  _271
REMARK  104  A    between atoms: _271  and  _272
REMARK  105  A    between atoms: _274  and  _276
REMARK  106  A    between atoms: _276  and  _277
REMARK  107  A    between atoms: _276  and  _279
REMARK  108  A    between atoms: _279  and  _280
REMARK  109  A    between atoms: _283  and  _285
REMARK  110  A    between atoms: _285  and  _286
REMARK  111  A    between atoms: _285  and  _288
REMARK  112  A    between atoms: _288  and  _289
REMARK  113  A    between atoms: _292  and  _294
REMARK  114  A    between atoms: _294  and  _295
REMARK  115  A    between atoms: _294  and  _297
REMARK  116  A    between atoms: _297  and  _298
REMARK  117  A    between atoms: _304  and  _306
REMARK  118  A    between atoms: _306  and  _307
REMARK  119  A    between atoms: _306  and  _309
REMARK  120  A    between atoms: _309  and  _310
REMARK                            x       y       z     vdW  Elec       q    Type
REMARK                         _______ _______ _______ _____ _____    ______ ____
ROOT
ATOM      1  CA  ARG A   2      10.761   8.436   8.268  0.00  0.00    +0.137 C 
ENDROOT
BRANCH   1   3
ATOM      2  C   SER A   1      12.864   9.316   7.388  0.00  0.00    +0.241 C 
ATOM      3  N   ARG A   2      11.824   9.433   8.208  0.00  0.00    -0.298 N 
ATOM      4  H   ARG A   2      11.766  10.265   8.829  0.00  0.00    +0.150 HD
ATOM      5  O   SER A   1      13.041   8.346   6.649  0.00  0.00    -0.274 OA
BRANCH   2   6
ATOM      6  CA  SER A   1      13.823  10.493   7.375  0.00  0.00    +0.174 C 
BRANCH   6   7
ATOM      7  N   SER A   1      15.171  10.083   7.003  0.00  0.00    -0.236 NA
ATOM      8  H   SER A   1      15.306   9.330   6.299  0.00  0.00    +0.142 HD
ENDBRANCH   6   7
BRANCH   6   9
ATOM      9  CB  SER A   1      13.305  11.546   6.398  0.00  0.00    +0.163 C 
BRANCH   9  10
ATOM     10  OG  SER A   1      12.002  11.960   6.766  0.00  0.00    -0.380 OA
ATOM     11  H   SER A   1      11.680  12.642   6.124  0.00  0.00    +0.211 HD
ENDBRANCH   9  10
ENDBRANCH   6   9
ENDBRANCH   2   6
ENDBRANCH   1   3
BRANCH   1  12
ATOM     12  C   ARG A   2       9.702   8.696   7.200  0.00  0.00    +0.227 C 
ATOM     13  O   ARG A   2       8.834   7.858   6.920  0.00  0.00    -0.286 OA
ENDBRANCH   1  12
BRANCH   1  14
ATOM     14  CB  ARG A   2      10.143   8.429   9.664  0.00  0.00    +0.031 C 
BRANCH  14  15
ATOM     15  CG  ARG A   2       9.134   7.310   9.870  0.00  0.00    +0.045 C 
BRANCH  15  16
ATOM     16  CD  ARG A   2       8.581   7.313  11.284  0.00  0.00    +0.174 C 
BRANCH  16  17
ATOM     17  NE  ARG A   2       9.567   6.896  12.285  0.00  0.00    -0.265 N 
ATOM     18  CZ  ARG A   2      10.280   7.731  13.046  0.00  0.00    +0.342 C 
ATOM     19  NH2 ARG A   2      11.126   7.234  13.943  0.00  0.00    -0.292 N 
ATOM     20 HH21 ARG A   2      11.686   7.875  14.541  0.00  0.00    +0.255 HD
ATOM     21 HH22 ARG A   2      11.228   6.204  14.047  0.00  0.00    +0.255 HD
ATOM     22  NH1 ARG A   2      10.165   9.050  12.918  0.00  0.00    -0.292 N 
ATOM     23 HH11 ARG A   2      10.730   9.682  13.521  0.00  0.00    +0.255 HD
ATOM     24 HH12 ARG A   2       9.510   9.449  12.215  0.00  0.00    +0.255 HD
ATOM     25  HE  ARG A   2       9.723   5.876  12.412  0.00  0.00    +0.259 HD
ENDBRANCH  16  17
ENDBRANCH  15  16
ENDBRANCH  14  15
ENDBRANCH   1  14
TORSDOF 10
REMARK  Name = ../refined-set-2016/4auj/4auj_pocket.pdb
REMARK  120 active torsions:
REMARK  status: ('A' for Active; 'I' for Inactive)
REMARK    1  A    between atoms: _1  and  _5
REMARK    2  A    between atoms: _5  and  _6
REMARK    3  A    between atoms: _5  and  _8
REMARK    4  A    between atoms: _8  and  _9
REMARK    5  A    between atoms: _15  and  _17
REMARK    6  A    between atoms: _17  and  _18
REMARK    7  A    between atoms: _22  and  _23
REMARK    8  A    between atoms: _28  and  _30
REMARK    9  A    between atoms: _30  and  _31
REMARK   10  A    between atoms: _30  and  _33
REMARK   11  A    between atoms: _33  and  _34
REMARK   12  A    between atoms: _37  and  _39
REMARK   13  A    between atoms: _39  and  _40
REMARK   14  A    between atoms: _42  and  _44
REMARK   15  A    between atoms: _44  and  _45
REMARK   16  A    between atoms: _47  and  _49
REMARK   17  A    between atoms: _49  and  _50
REMARK   18  A    between atoms: _49  and  _52
REMARK   19  A    between atoms: _52  and  _53
REMARK   20  A    between atoms: _58  and  _60
REMARK   21  A    between atoms: _60  and  _61
REMARK   22  A    between atoms: _60  and  _63
REMARK   23  A    between atoms: _63  and  _64
REMARK   24  A    between atoms: _69  and  _71
REMARK   25  A    between atoms: _71  and  _72
REMARK   26  A    between atoms: _71  and  _74
REMARK   27  A    between atoms: _74  and  _75
REMARK   28  A    between atoms: _78  and  _80
REMARK   29  A    between atoms: _80  and  _81
REMARK   30  A    between atoms: _80  and  _83
REMARK   31  A    between atoms: _83  and  _84
REMARK   32  A    between atoms: _89  and  _90
REMARK   33  A    between atoms: _93  and  _94
REMARK   34  A    between atoms: _99  and  _101
REMARK   35  A    between atoms: _101  and  _102
REMARK   36  A    between atoms: _101  and  _104
REMARK   37  A    between atoms: _104  and  _105
REMARK   38  A    between atoms: _105  and  _106
REMARK   39  A    between atoms: _109  and  _111
REMARK   40  A    between atoms: _111  and  _112
REMARK   41  A    between atoms: _111  and  _114
REMARK   42  A    between atoms: _114  and  _115
REMARK   43  A    between atoms: _118  and  _120
REMARK   44  A    between atoms: _120  and  _121
REMARK   45  A    between atoms: _120  and  _123
REMARK   46  A    between atoms: _123  and  _124
REMARK   47  A    between atoms: _127  and  _129
REMARK   48  A    between atoms: _129  and  _130
REMARK   49  A    between atoms: _129  and  _132
REMARK   50  A    between atoms: _132  and  _133
REMARK   51  A    between atoms: _136  and  _138
REMARK   52  A    between atoms: _138  and  _139
REMARK   53  A    between atoms: _138  and  _141
REMARK   54  A    between atoms: _141  and  _142
REMARK   55  A    between atoms: _145  and  _147
REMARK   56  A    between atoms: _147  and  _148
REMARK   57  A    between atoms: _147  and  _150
REMARK   58  A    between atoms: _150  and  _151
REMARK   59  A    between atoms: _156  and  _157
REMARK   60  A    between atoms: _159  and  _161
REMARK   61  A    between atoms: _161  and  _162
REMARK   62  A    between atoms: _161  and  _164
REMARK   63  A    between atoms: _164  and  _165
REMARK   64  A    between atoms: _170  and  _171
REMARK   65  A    between atoms: _173  and  _175
REMARK   66  A    between atoms: _175  and  _176
REMARK   67  A    between atoms: _175  and  _178
REMARK   68  A    between atoms: _178  and  _179
REMARK   69  A    between atoms: _181  and  _183
REMARK   70  A    between atoms: _183  and  _184
REMARK   71  A    between atoms: _183  and  _186
REMARK   72  A    between atoms: _186  and  _187
REMARK   73  A    between atoms: _187  and  _188
REMARK   74  A    between atoms: _188  and  _189
REMARK   75  A    between atoms: _198  and  _200
REMARK   76  A    between atoms: _200  and  _201
REMARK   77  A    between atoms: _200  and  _203
REMARK   78  A    between atoms: _203  and  _204
REMARK   79  A    between atoms: _204  and  _205
REMARK   80  A    between atoms: _210  and  _212
REMARK   81  A    between atoms: _212  and  _213
REMARK   82  A    between atoms: _212  and  _215
REMARK   83  A    between atoms: _215  and  _216
REMARK   84  A    between atoms: _219  and  _221
REMARK   85  A    between atoms: _221  and  _222
REMARK   86  A    between atoms: _221  and  _224
REMARK   87  A    between atoms: _224  and  _225
REMARK   88  A    between atoms: _230  and  _232
REMARK   89  A    between atoms: _232  and  _233
REMARK   90  A    between atoms: _232  and  _235
REMARK   91  A    between atoms: _235  and  _236
REMARK   92  A    between atoms: _241  and  _243
REMARK   93  A    between atoms: _243  and  _244
REMARK   94  A    between atoms: _243  and  _246
REMARK   95  A    between atoms: _246  and  _247
REMARK   96  A    between atoms: _252  and  _253
REMARK   97  A    between atoms: _255  and  _257
REMARK   98  A    between atoms: _257  and  _258
REMARK   99  A    between atoms: _257  and  _260
REMARK  100  A    between atoms: _260  and  _261
REMARK  101  A    between atoms: _266  and  _268
REMARK  102  A    between atoms: _268  and  _269
REMARK  103  A    between atoms: _268  and  _271
REMARK  104  A    between atoms: _271  and  _272
REMARK  105  A    between atoms: _274  and  _276
REMARK  106  A    between atoms: _276  and  _277
REMARK  107  A    between atoms: _276  and  _279
REMARK  108  A    between atoms: _279  and  _280
REMARK  109  A    between atoms: _283  and  _285
REMARK  110  A    between atoms: _285  and  _286
REMARK  111  A    between atoms: _285  and  _288
REMARK  112  A    between atoms: _288  and  _289
REMARK  113  A    between atoms: _292  and  _294
REMARK  114  A    between atoms: _294  and  _295
REMARK  115  A    between atoms: _294  and  _297
REMARK  116  A    between atoms: _297  and  _298
REMARK  117  A    between atoms: _304  and  _306
REMARK  118  A    between atoms: _306  and  _307
REMARK  119  A    between atoms: _306  and  _309
REMARK  120  A    between atoms: _309  and  _310
REMARK                            x       y       z     vdW  Elec       q    Type
REMARK                         _______ _______ _______ _____ _____    ______ ____
ROOT
ATOM      1  CA  TYR A   5      24.126   1.809  14.129  0.00  0.00    +0.153 C 
ENDROOT
BRANCH   1   2
ATOM      2  C   TYR A   5      24.613   0.419  14.533  0.00  0.00    +0.241 C 
ATOM      3  O   TYR A   5      25.137   0.229  15.637  0.00  0.00    -0.273 OA
ATOM      4  N   ASN A   6      24.427  -0.557  13.654  0.00  0.00    -0.297 N 
ATOM      5  H   ASN A   6      23.978  -0.344  12.740  0.00  0.00    +0.150 HD
BRANCH   4   6
ATOM      6  CA  ASN A   6      24.842  -1.924  13.949  0.00  0.00    +0.158 C 
BRANCH   6   7
ATOM      7  C   ASN A   6      25.338  -2.612  12.683  0.00  0.00    +0.241 C 
ATOM      8  N   SER A   7      25.351  -3.944  12.670  0.00  0.00    -0.295 N 
ATOM      9  H   SER A   7      24.976  -4.470  13.485  0.00  0.00    +0.150 HD
ATOM     10  O   ASN A   6      25.709  -1.937  11.721  0.00  0.00    -0.273 OA
BRANCH   8  11
ATOM     11  CA  SER A   7      25.887  -4.673  11.522  0.00  0.00    +0.178 C 
BRANCH  11  12
ATOM     12  C   SER A   7      24.824  -5.053  10.486  0.00  0.00    +0.243 C 
ATOM     13  N   ASP A   8      23.621  -4.484  10.596  0.00  0.00    -0.296 N 
ATOM     14  H   ASP A   8      23.447  -3.793  11.353  0.00  0.00    +0.150 HD
ATOM     15  O   SER A   7      25.096  -5.846   9.588  0.00  0.00    -0.273 OA
BRANCH  13  16
ATOM     16  CA  ASP A   8      22.540  -4.824   9.659  0.00  0.00    +0.160 C 
BRANCH  16  17
ATOM     17  C   ASP A   8      22.970  -4.636   8.203  0.00  0.00    +0.241 C 
ATOM     18  O   ASP A   8      23.537  -3.613   7.829  0.00  0.00    -0.273 OA
ATOM     19  N   ASP A   9      22.692  -5.641   7.383  0.00  0.00    -0.297 N 
ATOM     20  H   ASP A   9      22.199  -6.472   7.767  0.00  0.00    +0.150 HD
BRANCH  19  21
ATOM     21  CA  ASP A   9      23.043  -5.635   5.980  0.00  0.00    +0.160 C 
BRANCH  21  22
ATOM     22  C   ASP A   9      21.963  -6.466   5.328  0.00  0.00    +0.241 C 
ATOM     23  O   ASP A   9      21.998  -7.699   5.350  0.00  0.00    -0.273 OA
ATOM     24  N   PHE A  10      20.969  -5.777   4.775  0.00  0.00    -0.298 N 
ATOM     25  H   PHE A  10      21.062  -4.747   4.667  0.00  0.00    +0.150 HD
BRANCH  24  26
ATOM     26  CA  PHE A  10      19.754  -6.435   4.318  0.00  0.00    +0.141 C 
BRANCH  26  27
ATOM     27  C   PHE A  10      19.512  -6.199   2.834  0.00  0.00    +0.227 C 
ATOM     28  O   PHE A  10      19.795  -5.110   2.302  0.00  0.00    -0.286 OA
ENDBRANCH  26  27
BRANCH  26  29
ATOM     29  CB  PHE A  10      18.544  -5.915   5.111  0.00  0.00    +0.054 C 
BRANCH  29  30
ATOM     30  CG  PHE A  10      18.593  -6.216   6.579  0.00  0.00    -0.020 A 
ATOM     31  CD2 PHE A  10      18.262  -5.235   7.508  0.00  0.00    -0.004 A 
ATOM     32  CE2 PHE A  10      18.280  -5.504   8.867  0.00  0.00    -0.000 A 
ATOM     33  CZ  PHE A  10      18.636  -6.774   9.312  0.00  0.00    -0.000 A 
ATOM     34  CE1 PHE A  10      18.956  -7.769   8.385  0.00  0.00    -0.000 A 
ATOM     35  CD1 PHE A  10      18.936  -7.480   7.029  0.00  0.00    -0.004 A 
ENDBRANCH  29  30
ENDBRANCH  26  29
ENDBRANCH  24  26
ENDBRANCH  21  22
BRANCH  21  36
ATOM     36  CB  ASP A   9      24.425  -6.269   5.796  0.00  0.00    +0.143 C 
BRANCH  36  37
ATOM     37  CG  ASP A   9      24.962  -6.124   4.392  0.00  0.00    +0.367 C 
ATOM     38  OD2 ASP A   9      26.196  -6.262   4.227  0.00  0.00    -0.246 OA
ATOM     39  OD1 ASP A   9      24.179  -5.883   3.453  0.00  0.00    -0.246 OA
ENDBRANCH  36  37
ENDBRANCH  21  36
ENDBRANCH  19  21
ENDBRANCH  16  17
BRANCH  16  40
ATOM     40  CB  ASP A   8      21.292  -3.969   9.909  0.00  0.00    +0.143 C 
BRANCH  40  41
ATOM     41  CG  ASP A   8      20.548  -4.342  11.183  0.00  0.00    +0.367 C 
ATOM     42  OD2 ASP A   8      20.915  -5.331  11.868  0.00  0.00    -0.246 OA
ATOM     43  OD1 ASP A   8      19.570  -3.622  11.506  0.00  0.00    -0.246 OA
ENDBRANCH  40  41
ENDBRANCH  16  40
ENDBRANCH  13  16
ENDBRANCH  11  12
BRANCH  11  44
ATOM     44  CB  SER A   7      26.612  -5.935  12.003  0.00  0.00    +0.166 C 
BRANCH  44  45
ATOM     45  OG  SER A   7      25.702  -6.824  12.630  0.00  0.00    -0.380 OA
ATOM     46  H   SER A   7      25.287  -6.375  13.409  0.00  0.00    +0.211 HD
ENDBRANCH  44  45
ENDBRANCH  11  44
ENDBRANCH   8  11
ENDBRANCH   6   7
BRANCH   6  47
ATOM     47  CB  ASN A   6      23.705  -2.709  14.615  0.00  0.00    +0.114 C 
BRANCH  47  48
ATOM     48  CG  ASN A   6      22.473  -2.796  13.745  0.00  0.00    +0.222 C 
ATOM     49  ND2 ASN A   6      21.354  -3.200  14.339  0.00  0.00    -0.329 N 
ATOM     50 HD21 ASN A   6      21.357  -3.429  15.353  0.00  0.00    +0.145 HD
ATOM     51 HD22 ASN A   6      20.476  -3.287  13.789  0.00  0.00    +0.145 HD
ATOM     52  OD1 ASN A   6      22.525  -2.513  12.551  0.00  0.00    -0.275 OA
ENDBRANCH  47  48
ENDBRANCH   6  47
ENDBRANCH   4   6
ENDBRANCH   1   2
BRANCH   1  55
ATOM     53  C   ASN A   4      25.365   3.243  12.566  0.00  0.00    +0.241 C 
ATOM     54  O   ASN A   4      25.960   3.861  13.460  0.00  0.00    -0.273 OA
ATOM     55  N   TYR A   5      24.582   2.194  12.802  0.00  0.00    -0.297 N 
ATOM     56  H   TYR A   5      24.279   1.616  11.992  0.00  0.00    +0.150 HD
BRANCH  53  57
ATOM     57  CA  ASN A   4      25.533   3.641  11.103  0.00  0.00    +0.158 C 
BRANCH  57  59
ATOM     58  C   ASN A   3      24.528   2.210   9.403  0.00  0.00    +0.241 C 
ATOM     59  N   ASN A   4      24.414   3.219  10.260  0.00  0.00    -0.297 N 
ATOM     60  H   ASN A   4      23.506   3.722  10.333  0.00  0.00    +0.150 HD
ATOM     61  O   ASN A   3      25.586   1.591   9.206  0.00  0.00    -0.273 OA
BRANCH  58  62
ATOM     62  CA  ASN A   3      23.263   1.816   8.667  0.00  0.00    +0.158 C 
BRANCH  62  64
ATOM     63  C   THR A   2      22.720   0.447   6.767  0.00  0.00    +0.243 C 
ATOM     64  N   ASN A   3      23.475   0.643   7.843  0.00  0.00    -0.297 N 
ATOM     65  H   ASN A   3      24.216  -0.043   8.093  0.00  0.00    +0.150 HD
ATOM     66  O   THR A   2      21.820   1.242   6.442  0.00  0.00    -0.273 OA
BRANCH  63  67
ATOM     67  CA  THR A   2      23.000  -0.797   5.935  0.00  0.00    +0.176 C 
BRANCH  67  70
ATOM     68  C   GLN A   1      21.395  -1.730   4.326  0.00  0.00    +0.238 C 
ATOM     69  O   GLN A   1      21.376  -2.851   4.844  0.00  0.00    -0.274 OA
ATOM     70  N   THR A   2      22.147  -0.726   4.760  0.00  0.00    -0.295 N 
ATOM     71  H   THR A   2      22.125   0.166   4.227  0.00  0.00    +0.150 HD
BRANCH  68  72
ATOM     72  CA  GLN A   1      20.514  -1.389   3.132  0.00  0.00    +0.145 C 
BRANCH  72  73
ATOM     73  N   GLN A   1      20.620  -2.374   2.069  0.00  0.00    -0.238 NA
ATOM     74  H   GLN A   1      20.336  -3.357   2.257  0.00  0.00    +0.142 HD
ENDBRANCH  72  73
BRANCH  72  75
ATOM     75  CB  GLN A   1      19.051  -1.275   3.580  0.00  0.00    +0.036 C 
BRANCH  75  76
ATOM     76  CG  GLN A   1      18.827  -0.350   4.804  0.00  0.00    +0.087 C 
BRANCH  76  77
ATOM     77  CD  GLN A   1      18.529  -1.115   6.095  0.00  0.00    +0.219 C 
ATOM     78  NE2 GLN A   1      19.042  -0.619   7.218  0.00  0.00    -0.329 N 
ATOM     79 HE21 GLN A   1      18.856  -1.089   8.127  0.00  0.00    +0.145 HD
ATOM     80 HE22 GLN A   1      19.629   0.239   7.187  0.00  0.00    +0.145 HD
ATOM     81  OE1 GLN A   1      17.828  -2.128   6.082  0.00  0.00    -0.275 OA
ENDBRANCH  76  77
ENDBRANCH  75  76
ENDBRANCH  72  75
ENDBRANCH  68  72
ENDBRANCH  67  70
BRANCH  67  82
ATOM     82  CB  THR A   2      24.489  -0.840   5.534  0.00  0.00    +0.137 C 
ATOM     83  CG2 THR A   2      24.813  -2.153   4.775  0.00  0.00    +0.034 C 
BRANCH  82  84
ATOM     84  OG1 THR A   2      24.791   0.275   4.688  0.00  0.00    -0.382 OA
ATOM     85  HG1 THR A   2      25.747   0.245   4.433  0.00  0.00    +0.210 HD
ENDBRANCH  82  84
ENDBRANCH  67  82
ENDBRANCH  63  67
ENDBRANCH  62  64
BRANCH  62  86
ATOM     86  CB  ASN A   3      22.104   1.588   9.648  0.00  0.00    +0.114 C 
BRANCH  86  87
ATOM     87  CG  ASN A   3      22.360   0.439  10.604  0.00  0.00    +0.222 C 
ATOM     88  OD1 ASN A   3      23.477   0.254  11.077  0.00  0.00    -0.275 OA
ATOM     89  ND2 ASN A   3      21.322  -0.327  10.907  0.00  0.00    -0.329 N 
ATOM     90 HD21 ASN A   3      21.437  -1.121  11.569  0.00  0.00    +0.145 HD
ATOM     91 HD22 ASN A   3      20.392  -0.134  10.483  0.00  0.00    +0.145 HD
ENDBRANCH  86  87
ENDBRANCH  62  86
ENDBRANCH  58  62
ENDBRANCH  57  59
BRANCH  57  92
ATOM     92  CB  ASN A   4      25.743   5.153  10.995  0.00  0.00    +0.114 C 
BRANCH  92  93
ATOM     93  CG  ASN A   4      24.656   5.944  11.696  0.00  0.00    +0.222 C 
ATOM     94  ND2 ASN A   4      24.941   7.213  11.979  0.00  0.00    -0.329 N 
ATOM     95 HD21 ASN A   4      24.236   7.810  12.456  0.00  0.00    +0.145 HD
ATOM     96 HD22 ASN A   4      25.869   7.607  11.723  0.00  0.00    +0.145 HD
ATOM     97  OD1 ASN A   4      23.572   5.426  11.977  0.00  0.00    -0.275 OA
ENDBRANCH  92  93
ENDBRANCH  57  92
ENDBRANCH  53  57
ENDBRANCH   1  55
BRANCH   1  98
ATOM     98  CB  TYR A   5      22.598   1.849  14.137  0.00  0.00    +0.055 C 
BRANCH  98  99
ATOM     99  CG  TYR A   5      21.921   1.426  15.423  0.00  0.00    -0.020 A 
ATOM    100  CD2 TYR A   5      21.810   2.304  16.495  0.00  0.00    -0.001 A 
ATOM    101  CE2 TYR A   5      21.167   1.932  17.657  0.00  0.00    +0.036 A 
ATOM    102  CZ  TYR A   5      20.612   0.671  17.755  0.00  0.00    +0.134 A 
ATOM    103  CE1 TYR A   5      20.696  -0.218  16.701  0.00  0.00    +0.036 A 
ATOM    104  CD1 TYR A   5      21.344   0.167  15.539  0.00  0.00    -0.001 A 
BRANCH 102 105
ATOM    105  OH  TYR A   5      19.971   0.298  18.913  0.00  0.00    -0.506 OA
ATOM    106  HH  TYR A   5      20.001   1.046  19.561  0.00  0.00    +0.292 HD
ENDBRANCH 102 105
ENDBRANCH  98  99
ENDBRANCH   1  98
TORSDOF 42
REMARK  Name = ../refined-set-2016/4auj/4auj_pocket.pdb
REMARK  120 active torsions:
REMARK  status: ('A' for Active; 'I' for Inactive)
REMARK    1  A    between atoms: _1  and  _5
REMARK    2  A    between atoms: _5  and  _6
REMARK    3  A    between atoms: _5  and  _8
REMARK    4  A    between atoms: _8  and  _9
REMARK    5  A    between atoms: _15  and  _17
REMARK    6  A    between atoms: _17  and  _18
REMARK    7  A    between atoms: _22  and  _23
REMARK    8  A    between atoms: _28  and  _30
REMARK    9  A    between atoms: _30  and  _31
REMARK   10  A    between atoms: _30  and  _33
REMARK   11  A    between atoms: _33  and  _34
REMARK   12  A    between atoms: _37  and  _39
REMARK   13  A    between atoms: _39  and  _40
REMARK   14  A    between atoms: _42  and  _44
REMARK   15  A    between atoms: _44  and  _45
REMARK   16  A    between atoms: _47  and  _49
REMARK   17  A    between atoms: _49  and  _50
REMARK   18  A    between atoms: _49  and  _52
REMARK   19  A    between atoms: _52  and  _53
REMARK   20  A    between atoms: _58  and  _60
REMARK   21  A    between atoms: _60  and  _61
REMARK   22  A    between atoms: _60  and  _63
REMARK   23  A    between atoms: _63  and  _64
REMARK   24  A    between atoms: _69  and  _71
REMARK   25  A    between atoms: _71  and  _72
REMARK   26  A    between atoms: _71  and  _74
REMARK   27  A    between atoms: _74  and  _75
REMARK   28  A    between atoms: _78  and  _80
REMARK   29  A    between atoms: _80  and  _81
REMARK   30  A    between atoms: _80  and  _83
REMARK   31  A    between atoms: _83  and  _84
REMARK   32  A    between atoms: _89  and  _90
REMARK   33  A    between atoms: _93  and  _94
REMARK   34  A    between atoms: _99  and  _101
REMARK   35  A    between atoms: _101  and  _102
REMARK   36  A    between atoms: _101  and  _104
REMARK   37  A    between atoms: _104  and  _105
REMARK   38  A    between atoms: _105  and  _106
REMARK   39  A    between atoms: _109  and  _111
REMARK   40  A    between atoms: _111  and  _112
REMARK   41  A    between atoms: _111  and  _114
REMARK   42  A    between atoms: _114  and  _115
REMARK   43  A    between atoms: _118  and  _120
REMARK   44  A    between atoms: _120  and  _121
REMARK   45  A    between atoms: _120  and  _123
REMARK   46  A    between atoms: _123  and  _124
REMARK   47  A    between atoms: _127  and  _129
REMARK   48  A    between atoms: _129  and  _130
REMARK   49  A    between atoms: _129  and  _132
REMARK   50  A    between atoms: _132  and  _133
REMARK   51  A    between atoms: _136  and  _138
REMARK   52  A    between atoms: _138  and  _139
REMARK   53  A    between atoms: _138  and  _141
REMARK   54  A    between atoms: _141  and  _142
REMARK   55  A    between atoms: _145  and  _147
REMARK   56  A    between atoms: _147  and  _148
REMARK   57  A    between atoms: _147  and  _150
REMARK   58  A    between atoms: _150  and  _151
REMARK   59  A    between atoms: _156  and  _157
REMARK   60  A    between atoms: _159  and  _161
REMARK   61  A    between atoms: _161  and  _162
REMARK   62  A    between atoms: _161  and  _164
REMARK   63  A    between atoms: _164  and  _165
REMARK   64  A    between atoms: _170  and  _171
REMARK   65  A    between atoms: _173  and  _175
REMARK   66  A    between atoms: _175  and  _176
REMARK   67  A    between atoms: _175  and  _178
REMARK   68  A    between atoms: _178  and  _179
REMARK   69  A    between atoms: _181  and  _183
REMARK   70  A    between atoms: _183  and  _184
REMARK   71  A    between atoms: _183  and  _186
REMARK   72  A    between atoms: _186  and  _187
REMARK   73  A    between atoms: _187  and  _188
REMARK   74  A    between atoms: _188  and  _189
REMARK   75  A    between atoms: _198  and  _200
REMARK   76  A    between atoms: _200  and  _201
REMARK   77  A    between atoms: _200  and  _203
REMARK   78  A    between atoms: _203  and  _204
REMARK   79  A    between atoms: _204  and  _205
REMARK   80  A    between atoms: _210  and  _212
REMARK   81  A    between atoms: _212  and  _213
REMARK   82  A    between atoms: _212  and  _215
REMARK   83  A    between atoms: _215  and  _216
REMARK   84  A    between atoms: _219  and  _221
REMARK   85  A    between atoms: _221  and  _222
REMARK   86  A    between atoms: _221  and  _224
REMARK   87  A    between atoms: _224  and  _225
REMARK   88  A    between atoms: _230  and  _232
REMARK   89  A    between atoms: _232  and  _233
REMARK   90  A    between atoms: _232  and  _235
REMARK   91  A    between atoms: _235  and  _236
REMARK   92  A    between atoms: _241  and  _243
REMARK   93  A    between atoms: _243  and  _244
REMARK   94  A    between atoms: _243  and  _246
REMARK   95  A    between atoms: _246  and  _247
REMARK   96  A    between atoms: _252  and  _253
REMARK   97  A    between atoms: _255  and  _257
REMARK   98  A    between atoms: _257  and  _258
REMARK   99  A    between atoms: _257  and  _260
REMARK  100  A    between atoms: _260  and  _261
REMARK  101  A    between atoms: _266  and  _268
REMARK  102  A    between atoms: _268  and  _269
REMARK  103  A    between atoms: _268  and  _271
REMARK  104  A    between atoms: _271  and  _272
REMARK  105  A    between atoms: _274  and  _276
REMARK  106  A    between atoms: _276  and  _277
REMARK  107  A    between atoms: _276  and  _279
REMARK  108  A    between atoms: _279  and  _280
REMARK  109  A    between atoms: _283  and  _285
REMARK  110  A    between atoms: _285  and  _286
REMARK  111  A    between atoms: _285  and  _288
REMARK  112  A    between atoms: _288  and  _289
REMARK  113  A    between atoms: _292  and  _294
REMARK  114  A    between atoms: _294  and  _295
REMARK  115  A    between atoms: _294  and  _297
REMARK  116  A    between atoms: _297  and  _298
REMARK  117  A    between atoms: _304  and  _306
REMARK  118  A    between atoms: _306  and  _307
REMARK  119  A    between atoms: _306  and  _309
REMARK  120  A    between atoms: _309  and  _310
REMARK                            x       y       z     vdW  Elec       q    Type
REMARK                         _______ _______ _______ _____ _____    ______ ____
ROOT
ATOM      1  CB  PHE A   1      14.930  -4.409  -0.326  0.00  0.00    +0.051 C 
ENDROOT
BRANCH   1   2
ATOM      2  CG  PHE A   1      14.799  -4.119   1.151  0.00  0.00    -0.020 A 
ATOM      3  CD2 PHE A   1      15.929  -4.021   1.967  0.00  0.00    -0.004 A 
ATOM      4  CE2 PHE A   1      15.800  -3.772   3.329  0.00  0.00    -0.000 A 
ATOM      5  CZ  PHE A   1      14.530  -3.627   3.892  0.00  0.00    -0.000 A 
ATOM      6  CE1 PHE A   1      13.399  -3.726   3.087  0.00  0.00    -0.000 A 
ATOM      7  CD1 PHE A   1      13.545  -3.971   1.728  0.00  0.00    -0.004 A 
ENDBRANCH   1   2
BRANCH   1   8
ATOM      8  CA  PHE A   1      15.383  -5.845  -0.641  0.00  0.00    +0.137 C 
BRANCH   8   9
ATOM      9  N   PHE A   1      16.770  -6.047  -0.243  0.00  0.00    -0.239 NA
ATOM     10  H   PHE A   1      17.487  -5.385  -0.602  0.00  0.00    +0.142 HD
ENDBRANCH   8   9
BRANCH   8  11
ATOM     11  C   PHE A   1      15.355  -6.110  -2.138  0.00  0.00    +0.224 C 
ATOM     12  O   PHE A   1      15.908  -5.335  -2.930  0.00  0.00    -0.287 OA
ENDBRANCH   8  11
ENDBRANCH   1   8
TORSDOF 4
REMARK  Name = ../refined-set-2016/4auj/4auj_pocket.pdb
REMARK  120 active torsions:
REMARK  status: ('A' for Active; 'I' for Inactive)
REMARK    1  A    between atoms: _1  and  _5
REMARK    2  A    between atoms: _5  and  _6
REMARK    3  A    between atoms: _5  and  _8
REMARK    4  A    between atoms: _8  and  _9
REMARK    5  A    between atoms: _15  and  _17
REMARK    6  A    between atoms: _17  and  _18
REMARK    7  A    between atoms: _22  and  _23
REMARK    8  A    between atoms: _28  and  _30
REMARK    9  A    between atoms: _30  and  _31
REMARK   10  A    between atoms: _30  and  _33
REMARK   11  A    between atoms: _33  and  _34
REMARK   12  A    between atoms: _37  and  _39
REMARK   13  A    between atoms: _39  and  _40
REMARK   14  A    between atoms: _42  and  _44
REMARK   15  A    between atoms: _44  and  _45
REMARK   16  A    between atoms: _47  and  _49
REMARK   17  A    between atoms: _49  and  _50
REMARK   18  A    between atoms: _49  and  _52
REMARK   19  A    between atoms: _52  and  _53
REMARK   20  A    between atoms: _58  and  _60
REMARK   21  A    between atoms: _60  and  _61
REMARK   22  A    between atoms: _60  and  _63
REMARK   23  A    between atoms: _63  and  _64
REMARK   24  A    between atoms: _69  and  _71
REMARK   25  A    between atoms: _71  and  _72
REMARK   26  A    between atoms: _71  and  _74
REMARK   27  A    between atoms: _74  and  _75
REMARK   28  A    between atoms: _78  and  _80
REMARK   29  A    between atoms: _80  and  _81
REMARK   30  A    between atoms: _80  and  _83
REMARK   31  A    between atoms: _83  and  _84
REMARK   32  A    between atoms: _89  and  _90
REMARK   33  A    between atoms: _93  and  _94
REMARK   34  A    between atoms: _99  and  _101
REMARK   35  A    between atoms: _101  and  _102
REMARK   36  A    between atoms: _101  and  _104
REMARK   37  A    between atoms: _104  and  _105
REMARK   38  A    between atoms: _105  and  _106
REMARK   39  A    between atoms: _109  and  _111
REMARK   40  A    between atoms: _111  and  _112
REMARK   41  A    between atoms: _111  and  _114
REMARK   42  A    between atoms: _114  and  _115
REMARK   43  A    between atoms: _118  and  _120
REMARK   44  A    between atoms: _120  and  _121
REMARK   45  A    between atoms: _120  and  _123
REMARK   46  A    between atoms: _123  and  _124
REMARK   47  A    between atoms: _127  and  _129
REMARK   48  A    between atoms: _129  and  _130
REMARK   49  A    between atoms: _129  and  _132
REMARK   50  A    between atoms: _132  and  _133
REMARK   51  A    between atoms: _136  and  _138
REMARK   52  A    between atoms: _138  and  _139
REMARK   53  A    between atoms: _138  and  _141
REMARK   54  A    between atoms: _141  and  _142
REMARK   55  A    between atoms: _145  and  _147
REMARK   56  A    between atoms: _147  and  _148
REMARK   57  A    between atoms: _147  and  _150
REMARK   58  A    between atoms: _150  and  _151
REMARK   59  A    between atoms: _156  and  _157
REMARK   60  A    between atoms: _159  and  _161
REMARK   61  A    between atoms: _161  and  _162
REMARK   62  A    between atoms: _161  and  _164
REMARK   63  A    between atoms: _164  and  _165
REMARK   64  A    between atoms: _170  and  _171
REMARK   65  A    between atoms: _173  and  _175
REMARK   66  A    between atoms: _175  and  _176
REMARK   67  A    between atoms: _175  and  _178
REMARK   68  A    between atoms: _178  and  _179
REMARK   69  A    between atoms: _181  and  _183
REMARK   70  A    between atoms: _183  and  _184
REMARK   71  A    between atoms: _183  and  _186
REMARK   72  A    between atoms: _186  and  _187
REMARK   73  A    between atoms: _187  and  _188
REMARK   74  A    between atoms: _188  and  _189
REMARK   75  A    between atoms: _198  and  _200
REMARK   76  A    between atoms: _200  and  _201
REMARK   77  A    between atoms: _200  and  _203
REMARK   78  A    between atoms: _203  and  _204
REMARK   79  A    between atoms: _204  and  _205
REMARK   80  A    between atoms: _210  and  _212
REMARK   81  A    between atoms: _212  and  _213
REMARK   82  A    between atoms: _212  and  _215
REMARK   83  A    between atoms: _215  and  _216
REMARK   84  A    between atoms: _219  and  _221
REMARK   85  A    between atoms: _221  and  _222
REMARK   86  A    between atoms: _221  and  _224
REMARK   87  A    between atoms: _224  and  _225
REMARK   88  A    between atoms: _230  and  _232
REMARK   89  A    between atoms: _232  and  _233
REMARK   90  A    between atoms: _232  and  _235
REMARK   91  A    between atoms: _235  and  _236
REMARK   92  A    between atoms: _241  and  _243
REMARK   93  A    between atoms: _243  and  _244
REMARK   94  A    between atoms: _243  and  _246
REMARK   95  A    between atoms: _246  and  _247
REMARK   96  A    between atoms: _252  and  _253
REMARK   97  A    between atoms: _255  and  _257
REMARK   98  A    between atoms: _257  and  _258
REMARK   99  A    between atoms: _257  and  _260
REMARK  100  A    between atoms: _260  and  _261
REMARK  101  A    between atoms: _266  and  _268
REMARK  102  A    between atoms: _268  and  _269
REMARK  103  A    between atoms: _268  and  _271
REMARK  104  A    between atoms: _271  and  _272
REMARK  105  A    between atoms: _274  and  _276
REMARK  106  A    between atoms: _276  and  _277
REMARK  107  A    between atoms: _276  and  _279
REMARK  108  A    between atoms: _279  and  _280
REMARK  109  A    between atoms: _283  and  _285
REMARK  110  A    between atoms: _285  and  _286
REMARK  111  A    between atoms: _285  and  _288
REMARK  112  A    between atoms: _288  and  _289
REMARK  113  A    between atoms: _292  and  _294
REMARK  114  A    between atoms: _294  and  _295
REMARK  115  A    between atoms: _294  and  _297
REMARK  116  A    between atoms: _297  and  _298
REMARK  117  A    between atoms: _304  and  _306
REMARK  118  A    between atoms: _306  and  _307
REMARK  119  A    between atoms: _306  and  _309
REMARK  120  A    between atoms: _309  and  _310
REMARK                            x       y       z     vdW  Elec       q    Type
REMARK                         _______ _______ _______ _____ _____    ______ ____
ROOT
ATOM      1  O   HOH     1      15.622  -3.155   7.443  0.00  0.00    +0.000 OA
ENDROOT
TORSDOF 0
REMARK  Name = ../refined-set-2016/4auj/4auj_pocket.pdb
REMARK  120 active torsions:
REMARK  status: ('A' for Active; 'I' for Inactive)
REMARK    1  A    between atoms: _1  and  _5
REMARK    2  A    between atoms: _5  and  _6
REMARK    3  A    between atoms: _5  and  _8
REMARK    4  A    between atoms: _8  and  _9
REMARK    5  A    between atoms: _15  and  _17
REMARK    6  A    between atoms: _17  and  _18
REMARK    7  A    between atoms: _22  and  _23
REMARK    8  A    between atoms: _28  and  _30
REMARK    9  A    between atoms: _30  and  _31
REMARK   10  A    between atoms: _30  and  _33
REMARK   11  A    between atoms: _33  and  _34
REMARK   12  A    between atoms: _37  and  _39
REMARK   13  A    between atoms: _39  and  _40
REMARK   14  A    between atoms: _42  and  _44
REMARK   15  A    between atoms: _44  and  _45
REMARK   16  A    between atoms: _47  and  _49
REMARK   17  A    between atoms: _49  and  _50
REMARK   18  A    between atoms: _49  and  _52
REMARK   19  A    between atoms: _52  and  _53
REMARK   20  A    between atoms: _58  and  _60
REMARK   21  A    between atoms: _60  and  _61
REMARK   22  A    between atoms: _60  and  _63
REMARK   23  A    between atoms: _63  and  _64
REMARK   24  A    between atoms: _69  and  _71
REMARK   25  A    between atoms: _71  and  _72
REMARK   26  A    between atoms: _71  and  _74
REMARK   27  A    between atoms: _74  and  _75
REMARK   28  A    between atoms: _78  and  _80
REMARK   29  A    between atoms: _80  and  _81
REMARK   30  A    between atoms: _80  and  _83
REMARK   31  A    between atoms: _83  and  _84
REMARK   32  A    between atoms: _89  and  _90
REMARK   33  A    between atoms: _93  and  _94
REMARK   34  A    between atoms: _99  and  _101
REMARK   35  A    between atoms: _101  and  _102
REMARK   36  A    between atoms: _101  and  _104
REMARK   37  A    between atoms: _104  and  _105
REMARK   38  A    between atoms: _105  and  _106
REMARK   39  A    between atoms: _109  and  _111
REMARK   40  A    between atoms: _111  and  _112
REMARK   41  A    between atoms: _111  and  _114
REMARK   42  A    between atoms: _114  and  _115
REMARK   43  A    between atoms: _118  and  _120
REMARK   44  A    between atoms: _120  and  _121
REMARK   45  A    between atoms: _120  and  _123
REMARK   46  A    between atoms: _123  and  _124
REMARK   47  A    between atoms: _127  and  _129
REMARK   48  A    between atoms: _129  and  _130
REMARK   49  A    between atoms: _129  and  _132
REMARK   50  A    between atoms: _132  and  _133
REMARK   51  A    between atoms: _136  and  _138
REMARK   52  A    between atoms: _138  and  _139
REMARK   53  A    between atoms: _138  and  _141
REMARK   54  A    between atoms: _141  and  _142
REMARK   55  A    between atoms: _145  and  _147
REMARK   56  A    between atoms: _147  and  _148
REMARK   57  A    between atoms: _147  and  _150
REMARK   58  A    between atoms: _150  and  _151
REMARK   59  A    between atoms: _156  and  _157
REMARK   60  A    between atoms: _159  and  _161
REMARK   61  A    between atoms: _161  and  _162
REMARK   62  A    between atoms: _161  and  _164
REMARK   63  A    between atoms: _164  and  _165
REMARK   64  A    between atoms: _170  and  _171
REMARK   65  A    between atoms: _173  and  _175
REMARK   66  A    between atoms: _175  and  _176
REMARK   67  A    between atoms: _175  and  _178
REMARK   68  A    between atoms: _178  and  _179
REMARK   69  A    between atoms: _181  and  _183
REMARK   70  A    between atoms: _183  and  _184
REMARK   71  A    between atoms: _183  and  _186
REMARK   72  A    between atoms: _186  and  _187
REMARK   73  A    between atoms: _187  and  _188
REMARK   74  A    between atoms: _188  and  _189
REMARK   75  A    between atoms: _198  and  _200
REMARK   76  A    between atoms: _200  and  _201
REMARK   77  A    between atoms: _200  and  _203
REMARK   78  A    between atoms: _203  and  _204
REMARK   79  A    between atoms: _204  and  _205
REMARK   80  A    between atoms: _210  and  _212
REMARK   81  A    between atoms: _212  and  _213
REMARK   82  A    between atoms: _212  and  _215
REMARK   83  A    between atoms: _215  and  _216
REMARK   84  A    between atoms: _219  and  _221
REMARK   85  A    between atoms: _221  and  _222
REMARK   86  A    between atoms: _221  and  _224
REMARK   87  A    between atoms: _224  and  _225
REMARK   88  A    between atoms: _230  and  _232
REMARK   89  A    between atoms: _232  and  _233
REMARK   90  A    between atoms: _232  and  _235
REMARK   91  A    between atoms: _235  and  _236
REMARK   92  A    between atoms: _241  and  _243
REMARK   93  A    between atoms: _243  and  _244
REMARK   94  A    between atoms: _243  and  _246
REMARK   95  A    between atoms: _246  and  _247
REMARK   96  A    between atoms: _252  and  _253
REMARK   97  A    between atoms: _255  and  _257
REMARK   98  A    between atoms: _257  and  _258
REMARK   99  A    between atoms: _257  and  _260
REMARK  100  A    between atoms: _260  and  _261
REMARK  101  A    between atoms: _266  and  _268
REMARK  102  A    between atoms: _268  and  _269
REMARK  103  A    between atoms: _268  and  _271
REMARK  104  A    between atoms: _271  and  _272
REMARK  105  A    between atoms: _274  and  _276
REMARK  106  A    between atoms: _276  and  _277
REMARK  107  A    between atoms: _276  and  _279
REMARK  108  A    between atoms: _279  and  _280
REMARK  109  A    between atoms: _283  and  _285
REMARK  110  A    between atoms: _285  and  _286
REMARK  111  A    between atoms: _285  and  _288
REMARK  112  A    between atoms: _288  and  _289
REMARK  113  A    between atoms: _292  and  _294
REMARK  114  A    between atoms: _294  and  _295
REMARK  115  A    between atoms: _294  and  _297
REMARK  116  A    between atoms: _297  and  _298
REMARK  117  A    between atoms: _304  and  _306
REMARK  118  A    between atoms: _306  and  _307
REMARK  119  A    between atoms: _306  and  _309
REMARK  120  A    between atoms: _309  and  _310
REMARK                            x       y       z     vdW  Elec       q    Type
REMARK                         _______ _______ _______ _____ _____    ______ ____
ROOT
ATOM      1  O   HOH     1       8.730  -3.407   8.905  0.00  0.00    +0.000 OA
ENDROOT
TORSDOF 0
REMARK  Name = ../refined-set-2016/4auj/4auj_pocket.pdb
REMARK  120 active torsions:
REMARK  status: ('A' for Active; 'I' for Inactive)
REMARK    1  A    between atoms: _1  and  _5
REMARK    2  A    between atoms: _5  and  _6
REMARK    3  A    between atoms: _5  and  _8
REMARK    4  A    between atoms: _8  and  _9
REMARK    5  A    between atoms: _15  and  _17
REMARK    6  A    between atoms: _17  and  _18
REMARK    7  A    between atoms: _22  and  _23
REMARK    8  A    between atoms: _28  and  _30
REMARK    9  A    between atoms: _30  and  _31
REMARK   10  A    between atoms: _30  and  _33
REMARK   11  A    between atoms: _33  and  _34
REMARK   12  A    between atoms: _37  and  _39
REMARK   13  A    between atoms: _39  and  _40
REMARK   14  A    between atoms: _42  and  _44
REMARK   15  A    between atoms: _44  and  _45
REMARK   16  A    between atoms: _47  and  _49
REMARK   17  A    between atoms: _49  and  _50
REMARK   18  A    between atoms: _49  and  _52
REMARK   19  A    between atoms: _52  and  _53
REMARK   20  A    between atoms: _58  and  _60
REMARK   21  A    between atoms: _60  and  _61
REMARK   22  A    between atoms: _60  and  _63
REMARK   23  A    between atoms: _63  and  _64
REMARK   24  A    between atoms: _69  and  _71
REMARK   25  A    between atoms: _71  and  _72
REMARK   26  A    between atoms: _71  and  _74
REMARK   27  A    between atoms: _74  and  _75
REMARK   28  A    between atoms: _78  and  _80
REMARK   29  A    between atoms: _80  and  _81
REMARK   30  A    between atoms: _80  and  _83
REMARK   31  A    between atoms: _83  and  _84
REMARK   32  A    between atoms: _89  and  _90
REMARK   33  A    between atoms: _93  and  _94
REMARK   34  A    between atoms: _99  and  _101
REMARK   35  A    between atoms: _101  and  _102
REMARK   36  A    between atoms: _101  and  _104
REMARK   37  A    between atoms: _104  and  _105
REMARK   38  A    between atoms: _105  and  _106
REMARK   39  A    between atoms: _109  and  _111
REMARK   40  A    between atoms: _111  and  _112
REMARK   41  A    between atoms: _111  and  _114
REMARK   42  A    between atoms: _114  and  _115
REMARK   43  A    between atoms: _118  and  _120
REMARK   44  A    between atoms: _120  and  _121
REMARK   45  A    between atoms: _120  and  _123
REMARK   46  A    between atoms: _123  and  _124
REMARK   47  A    between atoms: _127  and  _129
REMARK   48  A    between atoms: _129  and  _130
REMARK   49  A    between atoms: _129  and  _132
REMARK   50  A    between atoms: _132  and  _133
REMARK   51  A    between atoms: _136  and  _138
REMARK   52  A    between atoms: _138  and  _139
REMARK   53  A    between atoms: _138  and  _141
REMARK   54  A    between atoms: _141  and  _142
REMARK   55  A    between atoms: _145  and  _147
REMARK   56  A    between atoms: _147  and  _148
REMARK   57  A    between atoms: _147  and  _150
REMARK   58  A    between atoms: _150  and  _151
REMARK   59  A    between atoms: _156  and  _157
REMARK   60  A    between atoms: _159  and  _161
REMARK   61  A    between atoms: _161  and  _162
REMARK   62  A    between atoms: _161  and  _164
REMARK   63  A    between atoms: _164  and  _165
REMARK   64  A    between atoms: _170  and  _171
REMARK   65  A    between atoms: _173  and  _175
REMARK   66  A    between atoms: _175  and  _176
REMARK   67  A    between atoms: _175  and  _178
REMARK   68  A    between atoms: _178  and  _179
REMARK   69  A    between atoms: _181  and  _183
REMARK   70  A    between atoms: _183  and  _184
REMARK   71  A    between atoms: _183  and  _186
REMARK   72  A    between atoms: _186  and  _187
REMARK   73  A    between atoms: _187  and  _188
REMARK   74  A    between atoms: _188  and  _189
REMARK   75  A    between atoms: _198  and  _200
REMARK   76  A    between atoms: _200  and  _201
REMARK   77  A    between atoms: _200  and  _203
REMARK   78  A    between atoms: _203  and  _204
REMARK   79  A    between atoms: _204  and  _205
REMARK   80  A    between atoms: _210  and  _212
REMARK   81  A    between atoms: _212  and  _213
REMARK   82  A    between atoms: _212  and  _215
REMARK   83  A    between atoms: _215  and  _216
REMARK   84  A    between atoms: _219  and  _221
REMARK   85  A    between atoms: _221  and  _222
REMARK   86  A    between atoms: _221  and  _224
REMARK   87  A    between atoms: _224  and  _225
REMARK   88  A    between atoms: _230  and  _232
REMARK   89  A    between atoms: _232  and  _233
REMARK   90  A    between atoms: _232  and  _235
REMARK   91  A    between atoms: _235  and  _236
REMARK   92  A    between atoms: _241  and  _243
REMARK   93  A    between atoms: _243  and  _244
REMARK   94  A    between atoms: _243  and  _246
REMARK   95  A    between atoms: _246  and  _247
REMARK   96  A    between atoms: _252  and  _253
REMARK   97  A    between atoms: _255  and  _257
REMARK   98  A    between atoms: _257  and  _258
REMARK   99  A    between atoms: _257  and  _260
REMARK  100  A    between atoms: _260  and  _261
REMARK  101  A    between atoms: _266  and  _268
REMARK  102  A    between atoms: _268  and  _269
REMARK  103  A    between atoms: _268  and  _271
REMARK  104  A    between atoms: _271  and  _272
REMARK  105  A    between atoms: _274  and  _276
REMARK  106  A    between atoms: _276  and  _277
REMARK  107  A    between atoms: _276  and  _279
REMARK  108  A    between atoms: _279  and  _280
REMARK  109  A    between atoms: _283  and  _285
REMARK  110  A    between atoms: _285  and  _286
REMARK  111  A    between atoms: _285  and  _288
REMARK  112  A    between atoms: _288  and  _289
REMARK  113  A    between atoms: _292  and  _294
REMARK  114  A    between atoms: _294  and  _295
REMARK  115  A    between atoms: _294  and  _297
REMARK  116  A    between atoms: _297  and  _298
REMARK  117  A    between atoms: _304  and  _306
REMARK  118  A    between atoms: _306  and  _307
REMARK  119  A    between atoms: _306  and  _309
REMARK  120  A    between atoms: _309  and  _310
REMARK                            x       y       z     vdW  Elec       q    Type
REMARK                         _______ _______ _______ _____ _____    ______ ____
ROOT
ATOM      1  O   HOH     1      10.318  -7.535   9.955  0.00  0.00    +0.000 OA
ENDROOT
TORSDOF 0
REMARK  Name = ../refined-set-2016/4auj/4auj_pocket.pdb
REMARK  120 active torsions:
REMARK  status: ('A' for Active; 'I' for Inactive)
REMARK    1  A    between atoms: _1  and  _5
REMARK    2  A    between atoms: _5  and  _6
REMARK    3  A    between atoms: _5  and  _8
REMARK    4  A    between atoms: _8  and  _9
REMARK    5  A    between atoms: _15  and  _17
REMARK    6  A    between atoms: _17  and  _18
REMARK    7  A    between atoms: _22  and  _23
REMARK    8  A    between atoms: _28  and  _30
REMARK    9  A    between atoms: _30  and  _31
REMARK   10  A    between atoms: _30  and  _33
REMARK   11  A    between atoms: _33  and  _34
REMARK   12  A    between atoms: _37  and  _39
REMARK   13  A    between atoms: _39  and  _40
REMARK   14  A    between atoms: _42  and  _44
REMARK   15  A    between atoms: _44  and  _45
REMARK   16  A    between atoms: _47  and  _49
REMARK   17  A    between atoms: _49  and  _50
REMARK   18  A    between atoms: _49  and  _52
REMARK   19  A    between atoms: _52  and  _53
REMARK   20  A    between atoms: _58  and  _60
REMARK   21  A    between atoms: _60  and  _61
REMARK   22  A    between atoms: _60  and  _63
REMARK   23  A    between atoms: _63  and  _64
REMARK   24  A    between atoms: _69  and  _71
REMARK   25  A    between atoms: _71  and  _72
REMARK   26  A    between atoms: _71  and  _74
REMARK   27  A    between atoms: _74  and  _75
REMARK   28  A    between atoms: _78  and  _80
REMARK   29  A    between atoms: _80  and  _81
REMARK   30  A    between atoms: _80  and  _83
REMARK   31  A    between atoms: _83  and  _84
REMARK   32  A    between atoms: _89  and  _90
REMARK   33  A    between atoms: _93  and  _94
REMARK   34  A    between atoms: _99  and  _101
REMARK   35  A    between atoms: _101  and  _102
REMARK   36  A    between atoms: _101  and  _104
REMARK   37  A    between atoms: _104  and  _105
REMARK   38  A    between atoms: _105  and  _106
REMARK   39  A    between atoms: _109  and  _111
REMARK   40  A    between atoms: _111  and  _112
REMARK   41  A    between atoms: _111  and  _114
REMARK   42  A    between atoms: _114  and  _115
REMARK   43  A    between atoms: _118  and  _120
REMARK   44  A    between atoms: _120  and  _121
REMARK   45  A    between atoms: _120  and  _123
REMARK   46  A    between atoms: _123  and  _124
REMARK   47  A    between atoms: _127  and  _129
REMARK   48  A    between atoms: _129  and  _130
REMARK   49  A    between atoms: _129  and  _132
REMARK   50  A    between atoms: _132  and  _133
REMARK   51  A    between atoms: _136  and  _138
REMARK   52  A    between atoms: _138  and  _139
REMARK   53  A    between atoms: _138  and  _141
REMARK   54  A    between atoms: _141  and  _142
REMARK   55  A    between atoms: _145  and  _147
REMARK   56  A    between atoms: _147  and  _148
REMARK   57  A    between atoms: _147  and  _150
REMARK   58  A    between atoms: _150  and  _151
REMARK   59  A    between atoms: _156  and  _157
REMARK   60  A    between atoms: _159  and  _161
REMARK   61  A    between atoms: _161  and  _162
REMARK   62  A    between atoms: _161  and  _164
REMARK   63  A    between atoms: _164  and  _165
REMARK   64  A    between atoms: _170  and  _171
REMARK   65  A    between atoms: _173  and  _175
REMARK   66  A    between atoms: _175  and  _176
REMARK   67  A    between atoms: _175  and  _178
REMARK   68  A    between atoms: _178  and  _179
REMARK   69  A    between atoms: _181  and  _183
REMARK   70  A    between atoms: _183  and  _184
REMARK   71  A    between atoms: _183  and  _186
REMARK   72  A    between atoms: _186  and  _187
REMARK   73  A    between atoms: _187  and  _188
REMARK   74  A    between atoms: _188  and  _189
REMARK   75  A    between atoms: _198  and  _200
REMARK   76  A    between atoms: _200  and  _201
REMARK   77  A    between atoms: _200  and  _203
REMARK   78  A    between atoms: _203  and  _204
REMARK   79  A    between atoms: _204  and  _205
REMARK   80  A    between atoms: _210  and  _212
REMARK   81  A    between atoms: _212  and  _213
REMARK   82  A    between atoms: _212  and  _215
REMARK   83  A    between atoms: _215  and  _216
REMARK   84  A    between atoms: _219  and  _221
REMARK   85  A    between atoms: _221  and  _222
REMARK   86  A    between atoms: _221  and  _224
REMARK   87  A    between atoms: _224  and  _225
REMARK   88  A    between atoms: _230  and  _232
REMARK   89  A    between atoms: _232  and  _233
REMARK   90  A    between atoms: _232  and  _235
REMARK   91  A    between atoms: _235  and  _236
REMARK   92  A    between atoms: _241  and  _243
REMARK   93  A    between atoms: _243  and  _244
REMARK   94  A    between atoms: _243  and  _246
REMARK   95  A    between atoms: _246  and  _247
REMARK   96  A    between atoms: _252  and  _253
REMARK   97  A    between atoms: _255  and  _257
REMARK   98  A    between atoms: _257  and  _258
REMARK   99  A    between atoms: _257  and  _260
REMARK  100  A    between atoms: _260  and  _261
REMARK  101  A    between atoms: _266  and  _268
REMARK  102  A    between atoms: _268  and  _269
REMARK  103  A    between atoms: _268  and  _271
REMARK  104  A    between atoms: _271  and  _272
REMARK  105  A    between atoms: _274  and  _276
REMARK  106  A    between atoms: _276  and  _277
REMARK  107  A    between atoms: _276  and  _279
REMARK  108  A    between atoms: _279  and  _280
REMARK  109  A    between atoms: _283  and  _285
REMARK  110  A    between atoms: _285  and  _286
REMARK  111  A    between atoms: _285  and  _288
REMARK  112  A    between atoms: _288  and  _289
REMARK  113  A    between atoms: _292  and  _294
REMARK  114  A    between atoms: _294  and  _295
REMARK  115  A    between atoms: _294  and  _297
REMARK  116  A    between atoms: _297  and  _298
REMARK  117  A    between atoms: _304  and  _306
REMARK  118  A    between atoms: _306  and  _307
REMARK  119  A    between atoms: _306  and  _309
REMARK  120  A    between atoms: _309  and  _310
REMARK                            x       y       z     vdW  Elec       q    Type
REMARK                         _______ _______ _______ _____ _____    ______ ____
ROOT
ATOM      1  O   HOH     1       8.817   4.198  12.110  0.00  0.00    +0.000 OA
ENDROOT
TORSDOF 0
REMARK  Name = ../refined-set-2016/4auj/4auj_pocket.pdb
REMARK  120 active torsions:
REMARK  status: ('A' for Active; 'I' for Inactive)
REMARK    1  A    between atoms: _1  and  _5
REMARK    2  A    between atoms: _5  and  _6
REMARK    3  A    between atoms: _5  and  _8
REMARK    4  A    between atoms: _8  and  _9
REMARK    5  A    between atoms: _15  and  _17
REMARK    6  A    between atoms: _17  and  _18
REMARK    7  A    between atoms: _22  and  _23
REMARK    8  A    between atoms: _28  and  _30
REMARK    9  A    between atoms: _30  and  _31
REMARK   10  A    between atoms: _30  and  _33
REMARK   11  A    between atoms: _33  and  _34
REMARK   12  A    between atoms: _37  and  _39
REMARK   13  A    between atoms: _39  and  _40
REMARK   14  A    between atoms: _42  and  _44
REMARK   15  A    between atoms: _44  and  _45
REMARK   16  A    between atoms: _47  and  _49
REMARK   17  A    between atoms: _49  and  _50
REMARK   18  A    between atoms: _49  and  _52
REMARK   19  A    between atoms: _52  and  _53
REMARK   20  A    between atoms: _58  and  _60
REMARK   21  A    between atoms: _60  and  _61
REMARK   22  A    between atoms: _60  and  _63
REMARK   23  A    between atoms: _63  and  _64
REMARK   24  A    between atoms: _69  and  _71
REMARK   25  A    between atoms: _71  and  _72
REMARK   26  A    between atoms: _71  and  _74
REMARK   27  A    between atoms: _74  and  _75
REMARK   28  A    between atoms: _78  and  _80
REMARK   29  A    between atoms: _80  and  _81
REMARK   30  A    between atoms: _80  and  _83
REMARK   31  A    between atoms: _83  and  _84
REMARK   32  A    between atoms: _89  and  _90
REMARK   33  A    between atoms: _93  and  _94
REMARK   34  A    between atoms: _99  and  _101
REMARK   35  A    between atoms: _101  and  _102
REMARK   36  A    between atoms: _101  and  _104
REMARK   37  A    between atoms: _104  and  _105
REMARK   38  A    between atoms: _105  and  _106
REMARK   39  A    between atoms: _109  and  _111
REMARK   40  A    between atoms: _111  and  _112
REMARK   41  A    between atoms: _111  and  _114
REMARK   42  A    between atoms: _114  and  _115
REMARK   43  A    between atoms: _118  and  _120
REMARK   44  A    between atoms: _120  and  _121
REMARK   45  A    between atoms: _120  and  _123
REMARK   46  A    between atoms: _123  and  _124
REMARK   47  A    between atoms: _127  and  _129
REMARK   48  A    between atoms: _129  and  _130
REMARK   49  A    between atoms: _129  and  _132
REMARK   50  A    between atoms: _132  and  _133
REMARK   51  A    between atoms: _136  and  _138
REMARK   52  A    between atoms: _138  and  _139
REMARK   53  A    between atoms: _138  and  _141
REMARK   54  A    between atoms: _141  and  _142
REMARK   55  A    between atoms: _145  and  _147
REMARK   56  A    between atoms: _147  and  _148
REMARK   57  A    between atoms: _147  and  _150
REMARK   58  A    between atoms: _150  and  _151
REMARK   59  A    between atoms: _156  and  _157
REMARK   60  A    between atoms: _159  and  _161
REMARK   61  A    between atoms: _161  and  _162
REMARK   62  A    between atoms: _161  and  _164
REMARK   63  A    between atoms: _164  and  _165
REMARK   64  A    between atoms: _170  and  _171
REMARK   65  A    between atoms: _173  and  _175
REMARK   66  A    between atoms: _175  and  _176
REMARK   67  A    between atoms: _175  and  _178
REMARK   68  A    between atoms: _178  and  _179
REMARK   69  A    between atoms: _181  and  _183
REMARK   70  A    between atoms: _183  and  _184
REMARK   71  A    between atoms: _183  and  _186
REMARK   72  A    between atoms: _186  and  _187
REMARK   73  A    between atoms: _187  and  _188
REMARK   74  A    between atoms: _188  and  _189
REMARK   75  A    between atoms: _198  and  _200
REMARK   76  A    between atoms: _200  and  _201
REMARK   77  A    between atoms: _200  and  _203
REMARK   78  A    between atoms: _203  and  _204
REMARK   79  A    between atoms: _204  and  _205
REMARK   80  A    between atoms: _210  and  _212
REMARK   81  A    between atoms: _212  and  _213
REMARK   82  A    between atoms: _212  and  _215
REMARK   83  A    between atoms: _215  and  _216
REMARK   84  A    between atoms: _219  and  _221
REMARK   85  A    between atoms: _221  and  _222
REMARK   86  A    between atoms: _221  and  _224
REMARK   87  A    between atoms: _224  and  _225
REMARK   88  A    between atoms: _230  and  _232
REMARK   89  A    between atoms: _232  and  _233
REMARK   90  A    between atoms: _232  and  _235
REMARK   91  A    between atoms: _235  and  _236
REMARK   92  A    between atoms: _241  and  _243
REMARK   93  A    between atoms: _243  and  _244
REMARK   94  A    between atoms: _243  and  _246
REMARK   95  A    between atoms: _246  and  _247
REMARK   96  A    between atoms: _252  and  _253
REMARK   97  A    between atoms: _255  and  _257
REMARK   98  A    between atoms: _257  and  _258
REMARK   99  A    between atoms: _257  and  _260
REMARK  100  A    between atoms: _260  and  _261
REMARK  101  A    between atoms: _266  and  _268
REMARK  102  A    between atoms: _268  and  _269
REMARK  103  A    between atoms: _268  and  _271
REMARK  104  A    between atoms: _271  and  _272
REMARK  105  A    between atoms: _274  and  _276
REMARK  106  A    between atoms: _276  and  _277
REMARK  107  A    between atoms: _276  and  _279
REMARK  108  A    between atoms: _279  and  _280
REMARK  109  A    between atoms: _283  and  _285
REMARK  110  A    between atoms: _285  and  _286
REMARK  111  A    between atoms: _285  and  _288
REMARK  112  A    between atoms: _288  and  _289
REMARK  113  A    between atoms: _292  and  _294
REMARK  114  A    between atoms: _294  and  _295
REMARK  115  A    between atoms: _294  and  _297
REMARK  116  A    between atoms: _297  and  _298
REMARK  117  A    between atoms: _304  and  _306
REMARK  118  A    between atoms: _306  and  _307
REMARK  119  A    between atoms: _306  and  _309
REMARK  120  A    between atoms: _309  and  _310
REMARK                            x       y       z     vdW  Elec       q    Type
REMARK                         _______ _______ _______ _____ _____    ______ ____
ROOT
ATOM      1  O   HOH     1      17.085   4.050  21.726  0.00  0.00    +0.000 OA
ENDROOT
TORSDOF 0
REMARK  Name = ../refined-set-2016/4auj/4auj_pocket.pdb
REMARK  120 active torsions:
REMARK  status: ('A' for Active; 'I' for Inactive)
REMARK    1  A    between atoms: _1  and  _5
REMARK    2  A    between atoms: _5  and  _6
REMARK    3  A    between atoms: _5  and  _8
REMARK    4  A    between atoms: _8  and  _9
REMARK    5  A    between atoms: _15  and  _17
REMARK    6  A    between atoms: _17  and  _18
REMARK    7  A    between atoms: _22  and  _23
REMARK    8  A    between atoms: _28  and  _30
REMARK    9  A    between atoms: _30  and  _31
REMARK   10  A    between atoms: _30  and  _33
REMARK   11  A    between atoms: _33  and  _34
REMARK   12  A    between atoms: _37  and  _39
REMARK   13  A    between atoms: _39  and  _40
REMARK   14  A    between atoms: _42  and  _44
REMARK   15  A    between atoms: _44  and  _45
REMARK   16  A    between atoms: _47  and  _49
REMARK   17  A    between atoms: _49  and  _50
REMARK   18  A    between atoms: _49  and  _52
REMARK   19  A    between atoms: _52  and  _53
REMARK   20  A    between atoms: _58  and  _60
REMARK   21  A    between atoms: _60  and  _61
REMARK   22  A    between atoms: _60  and  _63
REMARK   23  A    between atoms: _63  and  _64
REMARK   24  A    between atoms: _69  and  _71
REMARK   25  A    between atoms: _71  and  _72
REMARK   26  A    between atoms: _71  and  _74
REMARK   27  A    between atoms: _74  and  _75
REMARK   28  A    between atoms: _78  and  _80
REMARK   29  A    between atoms: _80  and  _81
REMARK   30  A    between atoms: _80  and  _83
REMARK   31  A    between atoms: _83  and  _84
REMARK   32  A    between atoms: _89  and  _90
REMARK   33  A    between atoms: _93  and  _94
REMARK   34  A    between atoms: _99  and  _101
REMARK   35  A    between atoms: _101  and  _102
REMARK   36  A    between atoms: _101  and  _104
REMARK   37  A    between atoms: _104  and  _105
REMARK   38  A    between atoms: _105  and  _106
REMARK   39  A    between atoms: _109  and  _111
REMARK   40  A    between atoms: _111  and  _112
REMARK   41  A    between atoms: _111  and  _114
REMARK   42  A    between atoms: _114  and  _115
REMARK   43  A    between atoms: _118  and  _120
REMARK   44  A    between atoms: _120  and  _121
REMARK   45  A    between atoms: _120  and  _123
REMARK   46  A    between atoms: _123  and  _124
REMARK   47  A    between atoms: _127  and  _129
REMARK   48  A    between atoms: _129  and  _130
REMARK   49  A    between atoms: _129  and  _132
REMARK   50  A    between atoms: _132  and  _133
REMARK   51  A    between atoms: _136  and  _138
REMARK   52  A    between atoms: _138  and  _139
REMARK   53  A    between atoms: _138  and  _141
REMARK   54  A    between atoms: _141  and  _142
REMARK   55  A    between atoms: _145  and  _147
REMARK   56  A    between atoms: _147  and  _148
REMARK   57  A    between atoms: _147  and  _150
REMARK   58  A    between atoms: _150  and  _151
REMARK   59  A    between atoms: _156  and  _157
REMARK   60  A    between atoms: _159  and  _161
REMARK   61  A    between atoms: _161  and  _162
REMARK   62  A    between atoms: _161  and  _164
REMARK   63  A    between atoms: _164  and  _165
REMARK   64  A    between atoms: _170  and  _171
REMARK   65  A    between atoms: _173  and  _175
REMARK   66  A    between atoms: _175  and  _176
REMARK   67  A    between atoms: _175  and  _178
REMARK   68  A    between atoms: _178  and  _179
REMARK   69  A    between atoms: _181  and  _183
REMARK   70  A    between atoms: _183  and  _184
REMARK   71  A    between atoms: _183  and  _186
REMARK   72  A    between atoms: _186  and  _187
REMARK   73  A    between atoms: _187  and  _188
REMARK   74  A    between atoms: _188  and  _189
REMARK   75  A    between atoms: _198  and  _200
REMARK   76  A    between atoms: _200  and  _201
REMARK   77  A    between atoms: _200  and  _203
REMARK   78  A    between atoms: _203  and  _204
REMARK   79  A    between atoms: _204  and  _205
REMARK   80  A    between atoms: _210  and  _212
REMARK   81  A    between atoms: _212  and  _213
REMARK   82  A    between atoms: _212  and  _215
REMARK   83  A    between atoms: _215  and  _216
REMARK   84  A    between atoms: _219  and  _221
REMARK   85  A    between atoms: _221  and  _222
REMARK   86  A    between atoms: _221  and  _224
REMARK   87  A    between atoms: _224  and  _225
REMARK   88  A    between atoms: _230  and  _232
REMARK   89  A    between atoms: _232  and  _233
REMARK   90  A    between atoms: _232  and  _235
REMARK   91  A    between atoms: _235  and  _236
REMARK   92  A    between atoms: _241  and  _243
REMARK   93  A    between atoms: _243  and  _244
REMARK   94  A    between atoms: _243  and  _246
REMARK   95  A    between atoms: _246  and  _247
REMARK   96  A    between atoms: _252  and  _253
REMARK   97  A    between atoms: _255  and  _257
REMARK   98  A    between atoms: _257  and  _258
REMARK   99  A    between atoms: _257  and  _260
REMARK  100  A    between atoms: _260  and  _261
REMARK  101  A    between atoms: _266  and  _268
REMARK  102  A    between atoms: _268  and  _269
REMARK  103  A    between atoms: _268  and  _271
REMARK  104  A    between atoms: _271  and  _272
REMARK  105  A    between atoms: _274  and  _276
REMARK  106  A    between atoms: _276  and  _277
REMARK  107  A    between atoms: _276  and  _279
REMARK  108  A    between atoms: _279  and  _280
REMARK  109  A    between atoms: _283  and  _285
REMARK  110  A    between atoms: _285  and  _286
REMARK  111  A    between atoms: _285  and  _288
REMARK  112  A    between atoms: _288  and  _289
REMARK  113  A    between atoms: _292  and  _294
REMARK  114  A    between atoms: _294  and  _295
REMARK  115  A    between atoms: _294  and  _297
REMARK  116  A    between atoms: _297  and  _298
REMARK  117  A    between atoms: _304  and  _306
REMARK  118  A    between atoms: _306  and  _307
REMARK  119  A    between atoms: _306  and  _309
REMARK  120  A    between atoms: _309  and  _310
REMARK                            x       y       z     vdW  Elec       q    Type
REMARK                         _______ _______ _______ _____ _____    ______ ____
ROOT
ATOM      1  O   HOH     1      24.993  -1.686   8.925  0.00  0.00    +0.000 OA
ENDROOT
TORSDOF 0
REMARK  Name = ../refined-set-2016/4auj/4auj_pocket.pdb
REMARK  120 active torsions:
REMARK  status: ('A' for Active; 'I' for Inactive)
REMARK    1  A    between atoms: _1  and  _5
REMARK    2  A    between atoms: _5  and  _6
REMARK    3  A    between atoms: _5  and  _8
REMARK    4  A    between atoms: _8  and  _9
REMARK    5  A    between atoms: _15  and  _17
REMARK    6  A    between atoms: _17  and  _18
REMARK    7  A    between atoms: _22  and  _23
REMARK    8  A    between atoms: _28  and  _30
REMARK    9  A    between atoms: _30  and  _31
REMARK   10  A    between atoms: _30  and  _33
REMARK   11  A    between atoms: _33  and  _34
REMARK   12  A    between atoms: _37  and  _39
REMARK   13  A    between atoms: _39  and  _40
REMARK   14  A    between atoms: _42  and  _44
REMARK   15  A    between atoms: _44  and  _45
REMARK   16  A    between atoms: _47  and  _49
REMARK   17  A    between atoms: _49  and  _50
REMARK   18  A    between atoms: _49  and  _52
REMARK   19  A    between atoms: _52  and  _53
REMARK   20  A    between atoms: _58  and  _60
REMARK   21  A    between atoms: _60  and  _61
REMARK   22  A    between atoms: _60  and  _63
REMARK   23  A    between atoms: _63  and  _64
REMARK   24  A    between atoms: _69  and  _71
REMARK   25  A    between atoms: _71  and  _72
REMARK   26  A    between atoms: _71  and  _74
REMARK   27  A    between atoms: _74  and  _75
REMARK   28  A    between atoms: _78  and  _80
REMARK   29  A    between atoms: _80  and  _81
REMARK   30  A    between atoms: _80  and  _83
REMARK   31  A    between atoms: _83  and  _84
REMARK   32  A    between atoms: _89  and  _90
REMARK   33  A    between atoms: _93  and  _94
REMARK   34  A    between atoms: _99  and  _101
REMARK   35  A    between atoms: _101  and  _102
REMARK   36  A    between atoms: _101  and  _104
REMARK   37  A    between atoms: _104  and  _105
REMARK   38  A    between atoms: _105  and  _106
REMARK   39  A    between atoms: _109  and  _111
REMARK   40  A    between atoms: _111  and  _112
REMARK   41  A    between atoms: _111  and  _114
REMARK   42  A    between atoms: _114  and  _115
REMARK   43  A    between atoms: _118  and  _120
REMARK   44  A    between atoms: _120  and  _121
REMARK   45  A    between atoms: _120  and  _123
REMARK   46  A    between atoms: _123  and  _124
REMARK   47  A    between atoms: _127  and  _129
REMARK   48  A    between atoms: _129  and  _130
REMARK   49  A    between atoms: _129  and  _132
REMARK   50  A    between atoms: _132  and  _133
REMARK   51  A    between atoms: _136  and  _138
REMARK   52  A    between atoms: _138  and  _139
REMARK   53  A    between atoms: _138  and  _141
REMARK   54  A    between atoms: _141  and  _142
REMARK   55  A    between atoms: _145  and  _147
REMARK   56  A    between atoms: _147  and  _148
REMARK   57  A    between atoms: _147  and  _150
REMARK   58  A    between atoms: _150  and  _151
REMARK   59  A    between atoms: _156  and  _157
REMARK   60  A    between atoms: _159  and  _161
REMARK   61  A    between atoms: _161  and  _162
REMARK   62  A    between atoms: _161  and  _164
REMARK   63  A    between atoms: _164  and  _165
REMARK   64  A    between atoms: _170  and  _171
REMARK   65  A    between atoms: _173  and  _175
REMARK   66  A    between atoms: _175  and  _176
REMARK   67  A    between atoms: _175  and  _178
REMARK   68  A    between atoms: _178  and  _179
REMARK   69  A    between atoms: _181  and  _183
REMARK   70  A    between atoms: _183  and  _184
REMARK   71  A    between atoms: _183  and  _186
REMARK   72  A    between atoms: _186  and  _187
REMARK   73  A    between atoms: _187  and  _188
REMARK   74  A    between atoms: _188  and  _189
REMARK   75  A    between atoms: _198  and  _200
REMARK   76  A    between atoms: _200  and  _201
REMARK   77  A    between atoms: _200  and  _203
REMARK   78  A    between atoms: _203  and  _204
REMARK   79  A    between atoms: _204  and  _205
REMARK   80  A    between atoms: _210  and  _212
REMARK   81  A    between atoms: _212  and  _213
REMARK   82  A    between atoms: _212  and  _215
REMARK   83  A    between atoms: _215  and  _216
REMARK   84  A    between atoms: _219  and  _221
REMARK   85  A    between atoms: _221  and  _222
REMARK   86  A    between atoms: _221  and  _224
REMARK   87  A    between atoms: _224  and  _225
REMARK   88  A    between atoms: _230  and  _232
REMARK   89  A    between atoms: _232  and  _233
REMARK   90  A    between atoms: _232  and  _235
REMARK   91  A    between atoms: _235  and  _236
REMARK   92  A    between atoms: _241  and  _243
REMARK   93  A    between atoms: _243  and  _244
REMARK   94  A    between atoms: _243  and  _246
REMARK   95  A    between atoms: _246  and  _247
REMARK   96  A    between atoms: _252  and  _253
REMARK   97  A    between atoms: _255  and  _257
REMARK   98  A    between atoms: _257  and  _258
REMARK   99  A    between atoms: _257  and  _260
REMARK  100  A    between atoms: _260  and  _261
REMARK  101  A    between atoms: _266  and  _268
REMARK  102  A    between atoms: _268  and  _269
REMARK  103  A    between atoms: _268  and  _271
REMARK  104  A    between atoms: _271  and  _272
REMARK  105  A    between atoms: _274  and  _276
REMARK  106  A    between atoms: _276  and  _277
REMARK  107  A    between atoms: _276  and  _279
REMARK  108  A    between atoms: _279  and  _280
REMARK  109  A    between atoms: _283  and  _285
REMARK  110  A    between atoms: _285  and  _286
REMARK  111  A    between atoms: _285  and  _288
REMARK  112  A    between atoms: _288  and  _289
REMARK  113  A    between atoms: _292  and  _294
REMARK  114  A    between atoms: _294  and  _295
REMARK  115  A    between atoms: _294  and  _297
REMARK  116  A    between atoms: _297  and  _298
REMARK  117  A    between atoms: _304  and  _306
REMARK  118  A    between atoms: _306  and  _307
REMARK  119  A    between atoms: _306  and  _309
REMARK  120  A    between atoms: _309  and  _310
REMARK                            x       y       z     vdW  Elec       q    Type
REMARK                         _______ _______ _______ _____ _____    ______ ____
ROOT
ATOM      1  O   HOH     1      18.313  -3.859  13.819  0.00  0.00    +0.000 OA
ENDROOT
TORSDOF 0
REMARK  Name = ../refined-set-2016/4auj/4auj_pocket.pdb
REMARK  120 active torsions:
REMARK  status: ('A' for Active; 'I' for Inactive)
REMARK    1  A    between atoms: _1  and  _5
REMARK    2  A    between atoms: _5  and  _6
REMARK    3  A    between atoms: _5  and  _8
REMARK    4  A    between atoms: _8  and  _9
REMARK    5  A    between atoms: _15  and  _17
REMARK    6  A    between atoms: _17  and  _18
REMARK    7  A    between atoms: _22  and  _23
REMARK    8  A    between atoms: _28  and  _30
REMARK    9  A    between atoms: _30  and  _31
REMARK   10  A    between atoms: _30  and  _33
REMARK   11  A    between atoms: _33  and  _34
REMARK   12  A    between atoms: _37  and  _39
REMARK   13  A    between atoms: _39  and  _40
REMARK   14  A    between atoms: _42  and  _44
REMARK   15  A    between atoms: _44  and  _45
REMARK   16  A    between atoms: _47  and  _49
REMARK   17  A    between atoms: _49  and  _50
REMARK   18  A    between atoms: _49  and  _52
REMARK   19  A    between atoms: _52  and  _53
REMARK   20  A    between atoms: _58  and  _60
REMARK   21  A    between atoms: _60  and  _61
REMARK   22  A    between atoms: _60  and  _63
REMARK   23  A    between atoms: _63  and  _64
REMARK   24  A    between atoms: _69  and  _71
REMARK   25  A    between atoms: _71  and  _72
REMARK   26  A    between atoms: _71  and  _74
REMARK   27  A    between atoms: _74  and  _75
REMARK   28  A    between atoms: _78  and  _80
REMARK   29  A    between atoms: _80  and  _81
REMARK   30  A    between atoms: _80  and  _83
REMARK   31  A    between atoms: _83  and  _84
REMARK   32  A    between atoms: _89  and  _90
REMARK   33  A    between atoms: _93  and  _94
REMARK   34  A    between atoms: _99  and  _101
REMARK   35  A    between atoms: _101  and  _102
REMARK   36  A    between atoms: _101  and  _104
REMARK   37  A    between atoms: _104  and  _105
REMARK   38  A    between atoms: _105  and  _106
REMARK   39  A    between atoms: _109  and  _111
REMARK   40  A    between atoms: _111  and  _112
REMARK   41  A    between atoms: _111  and  _114
REMARK   42  A    between atoms: _114  and  _115
REMARK   43  A    between atoms: _118  and  _120
REMARK   44  A    between atoms: _120  and  _121
REMARK   45  A    between atoms: _120  and  _123
REMARK   46  A    between atoms: _123  and  _124
REMARK   47  A    between atoms: _127  and  _129
REMARK   48  A    between atoms: _129  and  _130
REMARK   49  A    between atoms: _129  and  _132
REMARK   50  A    between atoms: _132  and  _133
REMARK   51  A    between atoms: _136  and  _138
REMARK   52  A    between atoms: _138  and  _139
REMARK   53  A    between atoms: _138  and  _141
REMARK   54  A    between atoms: _141  and  _142
REMARK   55  A    between atoms: _145  and  _147
REMARK   56  A    between atoms: _147  and  _148
REMARK   57  A    between atoms: _147  and  _150
REMARK   58  A    between atoms: _150  and  _151
REMARK   59  A    between atoms: _156  and  _157
REMARK   60  A    between atoms: _159  and  _161
REMARK   61  A    between atoms: _161  and  _162
REMARK   62  A    between atoms: _161  and  _164
REMARK   63  A    between atoms: _164  and  _165
REMARK   64  A    between atoms: _170  and  _171
REMARK   65  A    between atoms: _173  and  _175
REMARK   66  A    between atoms: _175  and  _176
REMARK   67  A    between atoms: _175  and  _178
REMARK   68  A    between atoms: _178  and  _179
REMARK   69  A    between atoms: _181  and  _183
REMARK   70  A    between atoms: _183  and  _184
REMARK   71  A    between atoms: _183  and  _186
REMARK   72  A    between atoms: _186  and  _187
REMARK   73  A    between atoms: _187  and  _188
REMARK   74  A    between atoms: _188  and  _189
REMARK   75  A    between atoms: _198  and  _200
REMARK   76  A    between atoms: _200  and  _201
REMARK   77  A    between atoms: _200  and  _203
REMARK   78  A    between atoms: _203  and  _204
REMARK   79  A    between atoms: _204  and  _205
REMARK   80  A    between atoms: _210  and  _212
REMARK   81  A    between atoms: _212  and  _213
REMARK   82  A    between atoms: _212  and  _215
REMARK   83  A    between atoms: _215  and  _216
REMARK   84  A    between atoms: _219  and  _221
REMARK   85  A    between atoms: _221  and  _222
REMARK   86  A    between atoms: _221  and  _224
REMARK   87  A    between atoms: _224  and  _225
REMARK   88  A    between atoms: _230  and  _232
REMARK   89  A    between atoms: _232  and  _233
REMARK   90  A    between atoms: _232  and  _235
REMARK   91  A    between atoms: _235  and  _236
REMARK   92  A    between atoms: _241  and  _243
REMARK   93  A    between atoms: _243  and  _244
REMARK   94  A    between atoms: _243  and  _246
REMARK   95  A    between atoms: _246  and  _247
REMARK   96  A    between atoms: _252  and  _253
REMARK   97  A    between atoms: _255  and  _257
REMARK   98  A    between atoms: _257  and  _258
REMARK   99  A    between atoms: _257  and  _260
REMARK  100  A    between atoms: _260  and  _261
REMARK  101  A    between atoms: _266  and  _268
REMARK  102  A    between atoms: _268  and  _269
REMARK  103  A    between atoms: _268  and  _271
REMARK  104  A    between atoms: _271  and  _272
REMARK  105  A    between atoms: _274  and  _276
REMARK  106  A    between atoms: _276  and  _277
REMARK  107  A    between atoms: _276  and  _279
REMARK  108  A    between atoms: _279  and  _280
REMARK  109  A    between atoms: _283  and  _285
REMARK  110  A    between atoms: _285  and  _286
REMARK  111  A    between atoms: _285  and  _288
REMARK  112  A    between atoms: _288  and  _289
REMARK  113  A    between atoms: _292  and  _294
REMARK  114  A    between atoms: _294  and  _295
REMARK  115  A    between atoms: _294  and  _297
REMARK  116  A    between atoms: _297  and  _298
REMARK  117  A    between atoms: _304  and  _306
REMARK  118  A    between atoms: _306  and  _307
REMARK  119  A    between atoms: _306  and  _309
REMARK  120  A    between atoms: _309  and  _310
REMARK                            x       y       z     vdW  Elec       q    Type
REMARK                         _______ _______ _______ _____ _____    ______ ____
ROOT
ATOM      1  O   HOH     1      22.913  -6.051  13.634  0.00  0.00    +0.000 OA
ENDROOT
TORSDOF 0
REMARK  Name = ../refined-set-2016/4auj/4auj_pocket.pdb
REMARK  120 active torsions:
REMARK  status: ('A' for Active; 'I' for Inactive)
REMARK    1  A    between atoms: _1  and  _5
REMARK    2  A    between atoms: _5  and  _6
REMARK    3  A    between atoms: _5  and  _8
REMARK    4  A    between atoms: _8  and  _9
REMARK    5  A    between atoms: _15  and  _17
REMARK    6  A    between atoms: _17  and  _18
REMARK    7  A    between atoms: _22  and  _23
REMARK    8  A    between atoms: _28  and  _30
REMARK    9  A    between atoms: _30  and  _31
REMARK   10  A    between atoms: _30  and  _33
REMARK   11  A    between atoms: _33  and  _34
REMARK   12  A    between atoms: _37  and  _39
REMARK   13  A    between atoms: _39  and  _40
REMARK   14  A    between atoms: _42  and  _44
REMARK   15  A    between atoms: _44  and  _45
REMARK   16  A    between atoms: _47  and  _49
REMARK   17  A    between atoms: _49  and  _50
REMARK   18  A    between atoms: _49  and  _52
REMARK   19  A    between atoms: _52  and  _53
REMARK   20  A    between atoms: _58  and  _60
REMARK   21  A    between atoms: _60  and  _61
REMARK   22  A    between atoms: _60  and  _63
REMARK   23  A    between atoms: _63  and  _64
REMARK   24  A    between atoms: _69  and  _71
REMARK   25  A    between atoms: _71  and  _72
REMARK   26  A    between atoms: _71  and  _74
REMARK   27  A    between atoms: _74  and  _75
REMARK   28  A    between atoms: _78  and  _80
REMARK   29  A    between atoms: _80  and  _81
REMARK   30  A    between atoms: _80  and  _83
REMARK   31  A    between atoms: _83  and  _84
REMARK   32  A    between atoms: _89  and  _90
REMARK   33  A    between atoms: _93  and  _94
REMARK   34  A    between atoms: _99  and  _101
REMARK   35  A    between atoms: _101  and  _102
REMARK   36  A    between atoms: _101  and  _104
REMARK   37  A    between atoms: _104  and  _105
REMARK   38  A    between atoms: _105  and  _106
REMARK   39  A    between atoms: _109  and  _111
REMARK   40  A    between atoms: _111  and  _112
REMARK   41  A    between atoms: _111  and  _114
REMARK   42  A    between atoms: _114  and  _115
REMARK   43  A    between atoms: _118  and  _120
REMARK   44  A    between atoms: _120  and  _121
REMARK   45  A    between atoms: _120  and  _123
REMARK   46  A    between atoms: _123  and  _124
REMARK   47  A    between atoms: _127  and  _129
REMARK   48  A    between atoms: _129  and  _130
REMARK   49  A    between atoms: _129  and  _132
REMARK   50  A    between atoms: _132  and  _133
REMARK   51  A    between atoms: _136  and  _138
REMARK   52  A    between atoms: _138  and  _139
REMARK   53  A    between atoms: _138  and  _141
REMARK   54  A    between atoms: _141  and  _142
REMARK   55  A    between atoms: _145  and  _147
REMARK   56  A    between atoms: _147  and  _148
REMARK   57  A    between atoms: _147  and  _150
REMARK   58  A    between atoms: _150  and  _151
REMARK   59  A    between atoms: _156  and  _157
REMARK   60  A    between atoms: _159  and  _161
REMARK   61  A    between atoms: _161  and  _162
REMARK   62  A    between atoms: _161  and  _164
REMARK   63  A    between atoms: _164  and  _165
REMARK   64  A    between atoms: _170  and  _171
REMARK   65  A    between atoms: _173  and  _175
REMARK   66  A    between atoms: _175  and  _176
REMARK   67  A    between atoms: _175  and  _178
REMARK   68  A    between atoms: _178  and  _179
REMARK   69  A    between atoms: _181  and  _183
REMARK   70  A    between atoms: _183  and  _184
REMARK   71  A    between atoms: _183  and  _186
REMARK   72  A    between atoms: _186  and  _187
REMARK   73  A    between atoms: _187  and  _188
REMARK   74  A    between atoms: _188  and  _189
REMARK   75  A    between atoms: _198  and  _200
REMARK   76  A    between atoms: _200  and  _201
REMARK   77  A    between atoms: _200  and  _203
REMARK   78  A    between atoms: _203  and  _204
REMARK   79  A    between atoms: _204  and  _205
REMARK   80  A    between atoms: _210  and  _212
REMARK   81  A    between atoms: _212  and  _213
REMARK   82  A    between atoms: _212  and  _215
REMARK   83  A    between atoms: _215  and  _216
REMARK   84  A    between atoms: _219  and  _221
REMARK   85  A    between atoms: _221  and  _222
REMARK   86  A    between atoms: _221  and  _224
REMARK   87  A    between atoms: _224  and  _225
REMARK   88  A    between atoms: _230  and  _232
REMARK   89  A    between atoms: _232  and  _233
REMARK   90  A    between atoms: _232  and  _235
REMARK   91  A    between atoms: _235  and  _236
REMARK   92  A    between atoms: _241  and  _243
REMARK   93  A    between atoms: _243  and  _244
REMARK   94  A    between atoms: _243  and  _246
REMARK   95  A    between atoms: _246  and  _247
REMARK   96  A    between atoms: _252  and  _253
REMARK   97  A    between atoms: _255  and  _257
REMARK   98  A    between atoms: _257  and  _258
REMARK   99  A    between atoms: _257  and  _260
REMARK  100  A    between atoms: _260  and  _261
REMARK  101  A    between atoms: _266  and  _268
REMARK  102  A    between atoms: _268  and  _269
REMARK  103  A    between atoms: _268  and  _271
REMARK  104  A    between atoms: _271  and  _272
REMARK  105  A    between atoms: _274  and  _276
REMARK  106  A    between atoms: _276  and  _277
REMARK  107  A    between atoms: _276  and  _279
REMARK  108  A    between atoms: _279  and  _280
REMARK  109  A    between atoms: _283  and  _285
REMARK  110  A    between atoms: _285  and  _286
REMARK  111  A    between atoms: _285  and  _288
REMARK  112  A    between atoms: _288  and  _289
REMARK  113  A    between atoms: _292  and  _294
REMARK  114  A    between atoms: _294  and  _295
REMARK  115  A    between atoms: _294  and  _297
REMARK  116  A    between atoms: _297  and  _298
REMARK  117  A    between atoms: _304  and  _306
REMARK  118  A    between atoms: _306  and  _307
REMARK  119  A    between atoms: _306  and  _309
REMARK  120  A    between atoms: _309  and  _310
REMARK                            x       y       z     vdW  Elec       q    Type
REMARK                         _______ _______ _______ _____ _____    ______ ____
ROOT
ATOM      1  O   HOH     1      21.284  -3.995  17.150  0.00  0.00    +0.000 OA
ENDROOT
TORSDOF 0
