REMARK  Name = ../refined-set-2016/3qlm/3qlm_pocket.pdb
REMARK  137 active torsions:
REMARK  status: ('A' for Active; 'I' for Inactive)
REMARK    1  A    between atoms: _1  and  _3
REMARK    2  A    between atoms: _3  and  _4
REMARK    3  A    between atoms: _3  and  _6
REMARK    4  A    between atoms: _6  and  _7
REMARK    5  A    between atoms: _10  and  _12
REMARK    6  A    between atoms: _12  and  _13
REMARK    7  A    between atoms: _12  and  _15
REMARK    8  A    between atoms: _15  and  _16
REMARK    9  A    between atoms: _26  and  _28
REMARK   10  A    between atoms: _28  and  _29
REMARK   11  A    between atoms: _28  and  _31
REMARK   12  A    between atoms: _31  and  _32
REMARK   13  A    between atoms: _38  and  _40
REMARK   14  A    between atoms: _40  and  _41
REMARK   15  A    between atoms: _40  and  _43
REMARK   16  A    between atoms: _43  and  _44
REMARK   17  A    between atoms: _44  and  _45
REMARK   18  A    between atoms: _45  and  _46
REMARK   19  A    between atoms: _55  and  _57
REMARK   20  A    between atoms: _57  and  _58
REMARK   21  A    between atoms: _57  and  _60
REMARK   22  A    between atoms: _60  and  _61
REMARK   23  A    between atoms: _63  and  _65
REMARK   24  A    between atoms: _65  and  _66
REMARK   25  A    between atoms: _65  and  _68
REMARK   26  A    between atoms: _68  and  _69
REMARK   27  A    between atoms: _72  and  _74
REMARK   28  A    between atoms: _74  and  _75
REMARK   29  A    between atoms: _74  and  _77
REMARK   30  A    between atoms: _77  and  _78
REMARK   31  A    between atoms: _78  and  _79
REMARK   32  A    between atoms: _79  and  _80
REMARK   33  A    between atoms: _80  and  _81
REMARK   34  A    between atoms: _85  and  _87
REMARK   35  A    between atoms: _87  and  _88
REMARK   36  A    between atoms: _87  and  _90
REMARK   37  A    between atoms: _90  and  _91
REMARK   38  A    between atoms: _97  and  _98
REMARK   39  A    between atoms: _103  and  _105
REMARK   40  A    between atoms: _105  and  _106
REMARK   41  A    between atoms: _105  and  _108
REMARK   42  A    between atoms: _108  and  _109
REMARK   43  A    between atoms: _112  and  _114
REMARK   44  A    between atoms: _114  and  _115
REMARK   45  A    between atoms: _114  and  _117
REMARK   46  A    between atoms: _117  and  _118
REMARK   47  A    between atoms: _118  and  _119
REMARK   48  A    between atoms: _121  and  _123
REMARK   49  A    between atoms: _123  and  _124
REMARK   50  A    between atoms: _123  and  _126
REMARK   51  A    between atoms: _126  and  _127
REMARK   52  A    between atoms: _130  and  _132
REMARK   53  A    between atoms: _132  and  _133
REMARK   54  A    between atoms: _132  and  _135
REMARK   55  A    between atoms: _135  and  _136
REMARK   56  A    between atoms: _142  and  _144
REMARK   57  A    between atoms: _144  and  _145
REMARK   58  A    between atoms: _144  and  _147
REMARK   59  A    between atoms: _147  and  _148
REMARK   60  A    between atoms: _153  and  _155
REMARK   61  A    between atoms: _155  and  _156
REMARK   62  A    between atoms: _155  and  _158
REMARK   63  A    between atoms: _158  and  _159
REMARK   64  A    between atoms: _164  and  _166
REMARK   65  A    between atoms: _166  and  _167
REMARK   66  A    between atoms: _166  and  _169
REMARK   67  A    between atoms: _169  and  _170
REMARK   68  A    between atoms: _175  and  _176
REMARK   69  A    between atoms: _178  and  _180
REMARK   70  A    between atoms: _180  and  _181
REMARK   71  A    between atoms: _180  and  _183
REMARK   72  A    between atoms: _183  and  _184
REMARK   73  A    between atoms: _189  and  _190
REMARK   74  A    between atoms: _194  and  _197
REMARK   75  A    between atoms: _197  and  _198
REMARK   76  A    between atoms: _198  and  _240
REMARK   77  A    between atoms: _206  and  _209
REMARK   78  A    between atoms: _209  and  _210
REMARK   79  A    between atoms: _218  and  _220
REMARK   80  A    between atoms: _220  and  _221
REMARK   81  A    between atoms: _220  and  _223
REMARK   82  A    between atoms: _223  and  _224
REMARK   83  A    between atoms: _227  and  _229
REMARK   84  A    between atoms: _229  and  _230
REMARK   85  A    between atoms: _229  and  _232
REMARK   86  A    between atoms: _234  and  _236
REMARK   87  A    between atoms: _236  and  _237
REMARK   88  A    between atoms: _236  and  _239
REMARK   89  A    between atoms: _239  and  _240
REMARK   90  A    between atoms: _241  and  _243
REMARK   91  A    between atoms: _243  and  _244
REMARK   92  A    between atoms: _243  and  _246
REMARK   93  A    between atoms: _246  and  _247
REMARK   94  A    between atoms: _247  and  _248
REMARK   95  A    between atoms: _251  and  _253
REMARK   96  A    between atoms: _253  and  _254
REMARK   97  A    between atoms: _253  and  _256
REMARK   98  A    between atoms: _256  and  _257
REMARK   99  A    between atoms: _262  and  _264
REMARK  100  A    between atoms: _264  and  _265
REMARK  101  A    between atoms: _264  and  _267
REMARK  102  A    between atoms: _267  and  _268
REMARK  103  A    between atoms: _271  and  _273
REMARK  104  A    between atoms: _273  and  _274
REMARK  105  A    between atoms: _273  and  _276
REMARK  106  A    between atoms: _276  and  _277
REMARK  107  A    between atoms: _282  and  _283
REMARK  108  A    between atoms: _285  and  _287
REMARK  109  A    between atoms: _287  and  _288
REMARK  110  A    between atoms: _287  and  _290
REMARK  111  A    between atoms: _290  and  _291
REMARK  112  A    between atoms: _296  and  _298
REMARK  113  A    between atoms: _298  and  _299
REMARK  114  A    between atoms: _298  and  _301
REMARK  115  A    between atoms: _301  and  _302
REMARK  116  A    between atoms: _307  and  _308
REMARK  117  A    between atoms: _310  and  _312
REMARK  118  A    between atoms: _312  and  _313
REMARK  119  A    between atoms: _312  and  _315
REMARK  120  A    between atoms: _315  and  _316
REMARK  121  A    between atoms: _319  and  _321
REMARK  122  A    between atoms: _321  and  _322
REMARK  123  A    between atoms: _321  and  _324
REMARK  124  A    between atoms: _324  and  _325
REMARK  125  A    between atoms: _328  and  _330
REMARK  126  A    between atoms: _330  and  _331
REMARK  127  A    between atoms: _334  and  _336
REMARK  128  A    between atoms: _336  and  _337
REMARK  129  A    between atoms: _336  and  _339
REMARK  130  A    between atoms: _339  and  _340
REMARK  131  A    between atoms: _346  and  _348
REMARK  132  A    between atoms: _348  and  _349
REMARK  133  A    between atoms: _348  and  _351
REMARK  134  A    between atoms: _351  and  _352
REMARK  135  A    between atoms: _352  and  _353
REMARK  136  A    between atoms: _353  and  _354
REMARK  137  A    between atoms: _354  and  _355
REMARK                            x       y       z     vdW  Elec       q    Type
REMARK                         _______ _______ _______ _____ _____    ______ ____
ROOT
ATOM      1  CA  TRP A   2     -39.056  11.002 -12.517  0.00  0.00    +0.141 C 
ENDROOT
BRANCH   1   4
ATOM      2  C   LEU A   1     -37.208  11.455 -11.123  0.00  0.00    +0.238 C 
ATOM      3  O   LEU A   1     -38.014  11.838 -10.259  0.00  0.00    -0.274 OA
ATOM      4  N   TRP A   2     -37.627  11.004 -12.290  0.00  0.00    -0.298 N 
ATOM      5  H   TRP A   2     -36.961  10.666 -13.013  0.00  0.00    +0.150 HD
BRANCH   2   6
ATOM      6  CA  LEU A   1     -35.705  11.495 -10.850  0.00  0.00    +0.145 C 
BRANCH   6   7
ATOM      7  N   LEU A   1     -35.009  10.194 -10.973  0.00  0.00    -0.238 NA
ATOM      8  H   LEU A   1     -34.079  10.163 -11.437  0.00  0.00    +0.142 HD
ENDBRANCH   6   7
BRANCH   6   9
ATOM      9  CB  LEU A   1     -35.066  12.562 -11.748  0.00  0.00    +0.026 C 
BRANCH   9  10
ATOM     10  CG  LEU A   1     -35.650  13.995 -11.731  0.00  0.00    +0.002 C 
ATOM     11  CD2 LEU A   1     -35.677  14.586 -10.354  0.00  0.00    +0.000 C 
ATOM     12  CD1 LEU A   1     -34.797  14.839 -12.620  0.00  0.00    +0.000 C 
ENDBRANCH   9  10
ENDBRANCH   6   9
ENDBRANCH   2   6
ENDBRANCH   1   4
BRANCH   1  13
ATOM     13  C   TRP A   2     -39.833  10.216 -11.458  0.00  0.00    +0.227 C 
ATOM     14  O   TRP A   2     -40.987  10.529 -11.215  0.00  0.00    -0.286 OA
ENDBRANCH   1  13
BRANCH   1  15
ATOM     15  CB  TRP A   2     -39.411  10.470 -13.902  0.00  0.00    +0.056 C 
BRANCH  15  16
ATOM     16  CG  TRP A   2     -39.275   8.941 -14.066  0.00  0.00    -0.002 A 
ATOM     17  CD2 TRP A   2     -40.324   7.957 -13.900  0.00  0.00    +0.013 A 
ATOM     18  CE3 TRP A   2     -41.687   8.035 -13.543  0.00  0.00    +0.001 A 
ATOM     19  CZ3 TRP A   2     -42.441   6.827 -13.450  0.00  0.00    +0.000 A 
ATOM     20  CH2 TRP A   2     -41.829   5.575 -13.750  0.00  0.00    +0.001 A 
ATOM     21  CZ2 TRP A   2     -40.494   5.502 -14.130  0.00  0.00    +0.017 A 
ATOM     22  CE2 TRP A   2     -39.760   6.692 -14.195  0.00  0.00    +0.056 A 
ATOM     23  NE1 TRP A   2     -38.445   6.892 -14.520  0.00  0.00    -0.352 N 
ATOM     24  HE1 TRP A   2     -37.772   6.143 -14.779  0.00  0.00    +0.166 HD
ATOM     25  CD1 TRP A   2     -38.147   8.239 -14.452  0.00  0.00    +0.068 A 
ENDBRANCH  15  16
ENDBRANCH   1  15
TORSDOF 8
REMARK  Name = ../refined-set-2016/3qlm/3qlm_pocket.pdb
REMARK  137 active torsions:
REMARK  status: ('A' for Active; 'I' for Inactive)
REMARK    1  A    between atoms: _1  and  _3
REMARK    2  A    between atoms: _3  and  _4
REMARK    3  A    between atoms: _3  and  _6
REMARK    4  A    between atoms: _6  and  _7
REMARK    5  A    between atoms: _10  and  _12
REMARK    6  A    between atoms: _12  and  _13
REMARK    7  A    between atoms: _12  and  _15
REMARK    8  A    between atoms: _15  and  _16
REMARK    9  A    between atoms: _26  and  _28
REMARK   10  A    between atoms: _28  and  _29
REMARK   11  A    between atoms: _28  and  _31
REMARK   12  A    between atoms: _31  and  _32
REMARK   13  A    between atoms: _38  and  _40
REMARK   14  A    between atoms: _40  and  _41
REMARK   15  A    between atoms: _40  and  _43
REMARK   16  A    between atoms: _43  and  _44
REMARK   17  A    between atoms: _44  and  _45
REMARK   18  A    between atoms: _45  and  _46
REMARK   19  A    between atoms: _55  and  _57
REMARK   20  A    between atoms: _57  and  _58
REMARK   21  A    between atoms: _57  and  _60
REMARK   22  A    between atoms: _60  and  _61
REMARK   23  A    between atoms: _63  and  _65
REMARK   24  A    between atoms: _65  and  _66
REMARK   25  A    between atoms: _65  and  _68
REMARK   26  A    between atoms: _68  and  _69
REMARK   27  A    between atoms: _72  and  _74
REMARK   28  A    between atoms: _74  and  _75
REMARK   29  A    between atoms: _74  and  _77
REMARK   30  A    between atoms: _77  and  _78
REMARK   31  A    between atoms: _78  and  _79
REMARK   32  A    between atoms: _79  and  _80
REMARK   33  A    between atoms: _80  and  _81
REMARK   34  A    between atoms: _85  and  _87
REMARK   35  A    between atoms: _87  and  _88
REMARK   36  A    between atoms: _87  and  _90
REMARK   37  A    between atoms: _90  and  _91
REMARK   38  A    between atoms: _97  and  _98
REMARK   39  A    between atoms: _103  and  _105
REMARK   40  A    between atoms: _105  and  _106
REMARK   41  A    between atoms: _105  and  _108
REMARK   42  A    between atoms: _108  and  _109
REMARK   43  A    between atoms: _112  and  _114
REMARK   44  A    between atoms: _114  and  _115
REMARK   45  A    between atoms: _114  and  _117
REMARK   46  A    between atoms: _117  and  _118
REMARK   47  A    between atoms: _118  and  _119
REMARK   48  A    between atoms: _121  and  _123
REMARK   49  A    between atoms: _123  and  _124
REMARK   50  A    between atoms: _123  and  _126
REMARK   51  A    between atoms: _126  and  _127
REMARK   52  A    between atoms: _130  and  _132
REMARK   53  A    between atoms: _132  and  _133
REMARK   54  A    between atoms: _132  and  _135
REMARK   55  A    between atoms: _135  and  _136
REMARK   56  A    between atoms: _142  and  _144
REMARK   57  A    between atoms: _144  and  _145
REMARK   58  A    between atoms: _144  and  _147
REMARK   59  A    between atoms: _147  and  _148
REMARK   60  A    between atoms: _153  and  _155
REMARK   61  A    between atoms: _155  and  _156
REMARK   62  A    between atoms: _155  and  _158
REMARK   63  A    between atoms: _158  and  _159
REMARK   64  A    between atoms: _164  and  _166
REMARK   65  A    between atoms: _166  and  _167
REMARK   66  A    between atoms: _166  and  _169
REMARK   67  A    between atoms: _169  and  _170
REMARK   68  A    between atoms: _175  and  _176
REMARK   69  A    between atoms: _178  and  _180
REMARK   70  A    between atoms: _180  and  _181
REMARK   71  A    between atoms: _180  and  _183
REMARK   72  A    between atoms: _183  and  _184
REMARK   73  A    between atoms: _189  and  _190
REMARK   74  A    between atoms: _194  and  _197
REMARK   75  A    between atoms: _197  and  _198
REMARK   76  A    between atoms: _198  and  _240
REMARK   77  A    between atoms: _206  and  _209
REMARK   78  A    between atoms: _209  and  _210
REMARK   79  A    between atoms: _218  and  _220
REMARK   80  A    between atoms: _220  and  _221
REMARK   81  A    between atoms: _220  and  _223
REMARK   82  A    between atoms: _223  and  _224
REMARK   83  A    between atoms: _227  and  _229
REMARK   84  A    between atoms: _229  and  _230
REMARK   85  A    between atoms: _229  and  _232
REMARK   86  A    between atoms: _234  and  _236
REMARK   87  A    between atoms: _236  and  _237
REMARK   88  A    between atoms: _236  and  _239
REMARK   89  A    between atoms: _239  and  _240
REMARK   90  A    between atoms: _241  and  _243
REMARK   91  A    between atoms: _243  and  _244
REMARK   92  A    between atoms: _243  and  _246
REMARK   93  A    between atoms: _246  and  _247
REMARK   94  A    between atoms: _247  and  _248
REMARK   95  A    between atoms: _251  and  _253
REMARK   96  A    between atoms: _253  and  _254
REMARK   97  A    between atoms: _253  and  _256
REMARK   98  A    between atoms: _256  and  _257
REMARK   99  A    between atoms: _262  and  _264
REMARK  100  A    between atoms: _264  and  _265
REMARK  101  A    between atoms: _264  and  _267
REMARK  102  A    between atoms: _267  and  _268
REMARK  103  A    between atoms: _271  and  _273
REMARK  104  A    between atoms: _273  and  _274
REMARK  105  A    between atoms: _273  and  _276
REMARK  106  A    between atoms: _276  and  _277
REMARK  107  A    between atoms: _282  and  _283
REMARK  108  A    between atoms: _285  and  _287
REMARK  109  A    between atoms: _287  and  _288
REMARK  110  A    between atoms: _287  and  _290
REMARK  111  A    between atoms: _290  and  _291
REMARK  112  A    between atoms: _296  and  _298
REMARK  113  A    between atoms: _298  and  _299
REMARK  114  A    between atoms: _298  and  _301
REMARK  115  A    between atoms: _301  and  _302
REMARK  116  A    between atoms: _307  and  _308
REMARK  117  A    between atoms: _310  and  _312
REMARK  118  A    between atoms: _312  and  _313
REMARK  119  A    between atoms: _312  and  _315
REMARK  120  A    between atoms: _315  and  _316
REMARK  121  A    between atoms: _319  and  _321
REMARK  122  A    between atoms: _321  and  _322
REMARK  123  A    between atoms: _321  and  _324
REMARK  124  A    between atoms: _324  and  _325
REMARK  125  A    between atoms: _328  and  _330
REMARK  126  A    between atoms: _330  and  _331
REMARK  127  A    between atoms: _334  and  _336
REMARK  128  A    between atoms: _336  and  _337
REMARK  129  A    between atoms: _336  and  _339
REMARK  130  A    between atoms: _339  and  _340
REMARK  131  A    between atoms: _346  and  _348
REMARK  132  A    between atoms: _348  and  _349
REMARK  133  A    between atoms: _348  and  _351
REMARK  134  A    between atoms: _351  and  _352
REMARK  135  A    between atoms: _352  and  _353
REMARK  136  A    between atoms: _353  and  _354
REMARK  137  A    between atoms: _354  and  _355
REMARK                            x       y       z     vdW  Elec       q    Type
REMARK                         _______ _______ _______ _____ _____    ______ ____
ROOT
ATOM      1  CA  ARG A   2     -41.217  13.573  -8.692  0.00  0.00    +0.149 C 
ENDROOT
BRANCH   1   4
ATOM      2  C   PHE A   1     -40.172  11.901  -7.283  0.00  0.00    +0.239 C 
ATOM      3  O   PHE A   1     -40.980  12.140  -6.398  0.00  0.00    -0.274 OA
ATOM      4  N   ARG A   2     -40.205  12.530  -8.456  0.00  0.00    -0.297 N 
ATOM      5  H   ARG A   2     -39.521  12.286  -9.200  0.00  0.00    +0.150 HD
BRANCH   2   6
ATOM      6  CA  PHE A   1     -39.099  10.841  -7.060  0.00  0.00    +0.149 C 
BRANCH   6   7
ATOM      7  N   PHE A   1     -39.084   9.952  -8.216  0.00  0.00    -0.238 NA
ATOM      8  H   PHE A   1     -38.220   9.892  -8.792  0.00  0.00    +0.142 HD
ENDBRANCH   6   7
BRANCH   6   9
ATOM      9  CB  PHE A   1     -37.727  11.485  -6.901  0.00  0.00    +0.053 C 
BRANCH   9  10
ATOM     10  CG  PHE A   1     -37.585  12.394  -5.701  0.00  0.00    -0.020 A 
ATOM     11  CD2 PHE A   1     -38.237  12.122  -4.505  0.00  0.00    -0.004 A 
ATOM     12  CE2 PHE A   1     -38.074  12.928  -3.402  0.00  0.00    -0.000 A 
ATOM     13  CZ  PHE A   1     -37.235  14.023  -3.476  0.00  0.00    -0.000 A 
ATOM     14  CE1 PHE A   1     -36.545  14.299  -4.668  0.00  0.00    -0.000 A 
ATOM     15  CD1 PHE A   1     -36.722  13.476  -5.762  0.00  0.00    -0.004 A 
ENDBRANCH   9  10
ENDBRANCH   6   9
ENDBRANCH   2   6
ENDBRANCH   1   4
BRANCH   1  16
ATOM     16  C   ARG A   2     -42.594  13.018  -8.448  0.00  0.00    +0.241 C 
ATOM     17  O   ARG A   2     -43.455  13.681  -7.907  0.00  0.00    -0.273 OA
ATOM     18  N   SER A   3     -42.824  11.777  -8.823  0.00  0.00    -0.296 N 
ATOM     19  H   SER A   3     -42.072  11.191  -9.238  0.00  0.00    +0.150 HD
BRANCH  18  20
ATOM     20  CA  SER A   3     -44.170  11.257  -8.635  0.00  0.00    +0.166 C 
BRANCH  20  21
ATOM     21  CB  SER A   3     -44.435  10.613  -7.244  0.00  0.00    +0.229 C 
ATOM     22  OG  SER A   3     -45.599  10.490  -6.841  0.00  0.00    -0.286 OA
ENDBRANCH  20  21
BRANCH  20  23
ATOM     23  C   SER A   3     -44.548  10.320  -9.814  0.00  0.00    +0.165 C 
BRANCH  23  24
ATOM     24  O   SER A   3     -44.263   8.976  -9.489  0.00  0.00    -0.380 OA
ATOM     25  H   SER A   3     -44.784   8.713  -8.689  0.00  0.00    +0.211 HD
ENDBRANCH  23  24
ENDBRANCH  20  23
ENDBRANCH  18  20
ENDBRANCH   1  16
BRANCH   1  26
ATOM     26  CB  ARG A   2     -41.197  14.075 -10.120  0.00  0.00    +0.033 C 
BRANCH  26  27
ATOM     27  CG  ARG A   2     -40.305  15.247 -10.401  0.00  0.00    +0.045 C 
BRANCH  27  28
ATOM     28  CD  ARG A   2     -40.636  15.723 -11.855  0.00  0.00    +0.174 C 
BRANCH  28  29
ATOM     29  NE  ARG A   2     -39.609  15.347 -12.853  0.00  0.00    -0.265 N 
ATOM     30  HE  ARG A   2     -38.676  15.796 -12.760  0.00  0.00    +0.259 HD
ATOM     31  CZ  ARG A   2     -39.768  14.483 -13.864  0.00  0.00    +0.342 C 
ATOM     32  NH2 ARG A   2     -40.937  13.864 -14.043  0.00  0.00    -0.292 N 
ATOM     33 HH21 ARG A   2     -41.729  14.052 -13.396  0.00  0.00    +0.255 HD
ATOM     34 HH22 ARG A   2     -41.056  13.194 -14.830  0.00  0.00    +0.255 HD
ATOM     35  NH1 ARG A   2     -38.749  14.228 -14.693  0.00  0.00    -0.292 N 
ATOM     36 HH11 ARG A   2     -37.833  14.701 -14.552  0.00  0.00    +0.255 HD
ATOM     37 HH12 ARG A   2     -38.873  13.557 -15.478  0.00  0.00    +0.255 HD
ENDBRANCH  28  29
ENDBRANCH  27  28
ENDBRANCH  26  27
ENDBRANCH   1  26
TORSDOF 14
REMARK  Name = ../refined-set-2016/3qlm/3qlm_pocket.pdb
REMARK  137 active torsions:
REMARK  status: ('A' for Active; 'I' for Inactive)
REMARK    1  A    between atoms: _1  and  _3
REMARK    2  A    between atoms: _3  and  _4
REMARK    3  A    between atoms: _3  and  _6
REMARK    4  A    between atoms: _6  and  _7
REMARK    5  A    between atoms: _10  and  _12
REMARK    6  A    between atoms: _12  and  _13
REMARK    7  A    between atoms: _12  and  _15
REMARK    8  A    between atoms: _15  and  _16
REMARK    9  A    between atoms: _26  and  _28
REMARK   10  A    between atoms: _28  and  _29
REMARK   11  A    between atoms: _28  and  _31
REMARK   12  A    between atoms: _31  and  _32
REMARK   13  A    between atoms: _38  and  _40
REMARK   14  A    between atoms: _40  and  _41
REMARK   15  A    between atoms: _40  and  _43
REMARK   16  A    between atoms: _43  and  _44
REMARK   17  A    between atoms: _44  and  _45
REMARK   18  A    between atoms: _45  and  _46
REMARK   19  A    between atoms: _55  and  _57
REMARK   20  A    between atoms: _57  and  _58
REMARK   21  A    between atoms: _57  and  _60
REMARK   22  A    between atoms: _60  and  _61
REMARK   23  A    between atoms: _63  and  _65
REMARK   24  A    between atoms: _65  and  _66
REMARK   25  A    between atoms: _65  and  _68
REMARK   26  A    between atoms: _68  and  _69
REMARK   27  A    between atoms: _72  and  _74
REMARK   28  A    between atoms: _74  and  _75
REMARK   29  A    between atoms: _74  and  _77
REMARK   30  A    between atoms: _77  and  _78
REMARK   31  A    between atoms: _78  and  _79
REMARK   32  A    between atoms: _79  and  _80
REMARK   33  A    between atoms: _80  and  _81
REMARK   34  A    between atoms: _85  and  _87
REMARK   35  A    between atoms: _87  and  _88
REMARK   36  A    between atoms: _87  and  _90
REMARK   37  A    between atoms: _90  and  _91
REMARK   38  A    between atoms: _97  and  _98
REMARK   39  A    between atoms: _103  and  _105
REMARK   40  A    between atoms: _105  and  _106
REMARK   41  A    between atoms: _105  and  _108
REMARK   42  A    between atoms: _108  and  _109
REMARK   43  A    between atoms: _112  and  _114
REMARK   44  A    between atoms: _114  and  _115
REMARK   45  A    between atoms: _114  and  _117
REMARK   46  A    between atoms: _117  and  _118
REMARK   47  A    between atoms: _118  and  _119
REMARK   48  A    between atoms: _121  and  _123
REMARK   49  A    between atoms: _123  and  _124
REMARK   50  A    between atoms: _123  and  _126
REMARK   51  A    between atoms: _126  and  _127
REMARK   52  A    between atoms: _130  and  _132
REMARK   53  A    between atoms: _132  and  _133
REMARK   54  A    between atoms: _132  and  _135
REMARK   55  A    between atoms: _135  and  _136
REMARK   56  A    between atoms: _142  and  _144
REMARK   57  A    between atoms: _144  and  _145
REMARK   58  A    between atoms: _144  and  _147
REMARK   59  A    between atoms: _147  and  _148
REMARK   60  A    between atoms: _153  and  _155
REMARK   61  A    between atoms: _155  and  _156
REMARK   62  A    between atoms: _155  and  _158
REMARK   63  A    between atoms: _158  and  _159
REMARK   64  A    between atoms: _164  and  _166
REMARK   65  A    between atoms: _166  and  _167
REMARK   66  A    between atoms: _166  and  _169
REMARK   67  A    between atoms: _169  and  _170
REMARK   68  A    between atoms: _175  and  _176
REMARK   69  A    between atoms: _178  and  _180
REMARK   70  A    between atoms: _180  and  _181
REMARK   71  A    between atoms: _180  and  _183
REMARK   72  A    between atoms: _183  and  _184
REMARK   73  A    between atoms: _189  and  _190
REMARK   74  A    between atoms: _194  and  _197
REMARK   75  A    between atoms: _197  and  _198
REMARK   76  A    between atoms: _198  and  _240
REMARK   77  A    between atoms: _206  and  _209
REMARK   78  A    between atoms: _209  and  _210
REMARK   79  A    between atoms: _218  and  _220
REMARK   80  A    between atoms: _220  and  _221
REMARK   81  A    between atoms: _220  and  _223
REMARK   82  A    between atoms: _223  and  _224
REMARK   83  A    between atoms: _227  and  _229
REMARK   84  A    between atoms: _229  and  _230
REMARK   85  A    between atoms: _229  and  _232
REMARK   86  A    between atoms: _234  and  _236
REMARK   87  A    between atoms: _236  and  _237
REMARK   88  A    between atoms: _236  and  _239
REMARK   89  A    between atoms: _239  and  _240
REMARK   90  A    between atoms: _241  and  _243
REMARK   91  A    between atoms: _243  and  _244
REMARK   92  A    between atoms: _243  and  _246
REMARK   93  A    between atoms: _246  and  _247
REMARK   94  A    between atoms: _247  and  _248
REMARK   95  A    between atoms: _251  and  _253
REMARK   96  A    between atoms: _253  and  _254
REMARK   97  A    between atoms: _253  and  _256
REMARK   98  A    between atoms: _256  and  _257
REMARK   99  A    between atoms: _262  and  _264
REMARK  100  A    between atoms: _264  and  _265
REMARK  101  A    between atoms: _264  and  _267
REMARK  102  A    between atoms: _267  and  _268
REMARK  103  A    between atoms: _271  and  _273
REMARK  104  A    between atoms: _273  and  _274
REMARK  105  A    between atoms: _273  and  _276
REMARK  106  A    between atoms: _276  and  _277
REMARK  107  A    between atoms: _282  and  _283
REMARK  108  A    between atoms: _285  and  _287
REMARK  109  A    between atoms: _287  and  _288
REMARK  110  A    between atoms: _287  and  _290
REMARK  111  A    between atoms: _290  and  _291
REMARK  112  A    between atoms: _296  and  _298
REMARK  113  A    between atoms: _298  and  _299
REMARK  114  A    between atoms: _298  and  _301
REMARK  115  A    between atoms: _301  and  _302
REMARK  116  A    between atoms: _307  and  _308
REMARK  117  A    between atoms: _310  and  _312
REMARK  118  A    between atoms: _312  and  _313
REMARK  119  A    between atoms: _312  and  _315
REMARK  120  A    between atoms: _315  and  _316
REMARK  121  A    between atoms: _319  and  _321
REMARK  122  A    between atoms: _321  and  _322
REMARK  123  A    between atoms: _321  and  _324
REMARK  124  A    between atoms: _324  and  _325
REMARK  125  A    between atoms: _328  and  _330
REMARK  126  A    between atoms: _330  and  _331
REMARK  127  A    between atoms: _334  and  _336
REMARK  128  A    between atoms: _336  and  _337
REMARK  129  A    between atoms: _336  and  _339
REMARK  130  A    between atoms: _339  and  _340
REMARK  131  A    between atoms: _346  and  _348
REMARK  132  A    between atoms: _348  and  _349
REMARK  133  A    between atoms: _348  and  _351
REMARK  134  A    between atoms: _351  and  _352
REMARK  135  A    between atoms: _352  and  _353
REMARK  136  A    between atoms: _353  and  _354
REMARK  137  A    between atoms: _354  and  _355
REMARK                            x       y       z     vdW  Elec       q    Type
REMARK                         _______ _______ _______ _____ _____    ______ ____
ROOT
ATOM      1  C   ILE A   1     -45.302  13.842  -4.477  0.00  0.00    +0.238 C 
ATOM      2  O   ILE A   1     -46.044  14.189  -3.556  0.00  0.00    -0.274 OA
ATOM      3  N   LYS A   2     -45.727  13.556  -5.707  0.00  0.00    -0.298 N 
ATOM      4  H   LYS A   2     -45.034  13.207  -6.400  0.00  0.00    +0.150 HD
ENDROOT
BRANCH   1   5
ATOM      5  CA  ILE A   1     -43.812  13.669  -4.249  0.00  0.00    +0.145 C 
BRANCH   5   6
ATOM      6  N   ILE A   1     -43.426  12.423  -4.883  0.00  0.00    -0.238 NA
ATOM      7  H   ILE A   1     -42.750  12.414  -5.674  0.00  0.00    +0.142 HD
ENDBRANCH   5   6
BRANCH   5   8
ATOM      8  CB  ILE A   1     -43.055  14.845  -4.818  0.00  0.00    +0.025 C 
ATOM      9  CG2 ILE A   1     -43.791  16.108  -4.520  0.00  0.00    +0.002 C 
BRANCH   8  10
ATOM     10  CG1 ILE A   1     -41.647  14.883  -4.230  0.00  0.00    +0.002 C 
ATOM     11  CD1 ILE A   1     -40.666  15.576  -5.120  0.00  0.00    +0.000 C 
ENDBRANCH   8  10
ENDBRANCH   5   8
ENDBRANCH   1   5
BRANCH   3  12
ATOM     12  CA  LYS A   2     -47.126  13.708  -6.135  0.00  0.00    +0.137 C 
BRANCH  12  13
ATOM     13  C   LYS A   2     -48.026  12.691  -5.454  0.00  0.00    +0.227 C 
ATOM     14  O   LYS A   2     -49.229  12.907  -5.309  0.00  0.00    -0.286 OA
ENDBRANCH  12  13
BRANCH  12  15
ATOM     15  CB  LYS A   2     -47.219  13.617  -7.662  0.00  0.00    +0.028 C 
BRANCH  15  16
ATOM     16  CG  LYS A   2     -48.592  13.906  -8.288  0.00  0.00    -0.000 C 
BRANCH  16  17
ATOM     17  CD  LYS A   2     -48.771  15.361  -8.760  0.00  0.00    -0.024 C 
BRANCH  17  18
ATOM     18  CE  LYS A   2     -50.251  15.877  -8.552  0.00  0.00    -0.086 C 
BRANCH  18  19
ATOM     19  NZ  LYS A   2     -50.512  17.117  -9.346  0.00  0.00    +0.380 N 
ATOM     20  HZ1 LYS A   2     -49.855  17.865  -9.044  0.00  0.00    -0.089 HD
ATOM     21  HZ2 LYS A   2     -51.491  17.429  -9.187  0.00  0.00    -0.089 HD
ATOM     22  HZ3 LYS A   2     -50.370  16.916 -10.357  0.00  0.00    -0.089 HD
ENDBRANCH  18  19
ENDBRANCH  17  18
ENDBRANCH  16  17
ENDBRANCH  15  16
ENDBRANCH  12  15
ENDBRANCH   3  12
TORSDOF 11
REMARK  Name = ../refined-set-2016/3qlm/3qlm_pocket.pdb
REMARK  137 active torsions:
REMARK  status: ('A' for Active; 'I' for Inactive)
REMARK    1  A    between atoms: _1  and  _3
REMARK    2  A    between atoms: _3  and  _4
REMARK    3  A    between atoms: _3  and  _6
REMARK    4  A    between atoms: _6  and  _7
REMARK    5  A    between atoms: _10  and  _12
REMARK    6  A    between atoms: _12  and  _13
REMARK    7  A    between atoms: _12  and  _15
REMARK    8  A    between atoms: _15  and  _16
REMARK    9  A    between atoms: _26  and  _28
REMARK   10  A    between atoms: _28  and  _29
REMARK   11  A    between atoms: _28  and  _31
REMARK   12  A    between atoms: _31  and  _32
REMARK   13  A    between atoms: _38  and  _40
REMARK   14  A    between atoms: _40  and  _41
REMARK   15  A    between atoms: _40  and  _43
REMARK   16  A    between atoms: _43  and  _44
REMARK   17  A    between atoms: _44  and  _45
REMARK   18  A    between atoms: _45  and  _46
REMARK   19  A    between atoms: _55  and  _57
REMARK   20  A    between atoms: _57  and  _58
REMARK   21  A    between atoms: _57  and  _60
REMARK   22  A    between atoms: _60  and  _61
REMARK   23  A    between atoms: _63  and  _65
REMARK   24  A    between atoms: _65  and  _66
REMARK   25  A    between atoms: _65  and  _68
REMARK   26  A    between atoms: _68  and  _69
REMARK   27  A    between atoms: _72  and  _74
REMARK   28  A    between atoms: _74  and  _75
REMARK   29  A    between atoms: _74  and  _77
REMARK   30  A    between atoms: _77  and  _78
REMARK   31  A    between atoms: _78  and  _79
REMARK   32  A    between atoms: _79  and  _80
REMARK   33  A    between atoms: _80  and  _81
REMARK   34  A    between atoms: _85  and  _87
REMARK   35  A    between atoms: _87  and  _88
REMARK   36  A    between atoms: _87  and  _90
REMARK   37  A    between atoms: _90  and  _91
REMARK   38  A    between atoms: _97  and  _98
REMARK   39  A    between atoms: _103  and  _105
REMARK   40  A    between atoms: _105  and  _106
REMARK   41  A    between atoms: _105  and  _108
REMARK   42  A    between atoms: _108  and  _109
REMARK   43  A    between atoms: _112  and  _114
REMARK   44  A    between atoms: _114  and  _115
REMARK   45  A    between atoms: _114  and  _117
REMARK   46  A    between atoms: _117  and  _118
REMARK   47  A    between atoms: _118  and  _119
REMARK   48  A    between atoms: _121  and  _123
REMARK   49  A    between atoms: _123  and  _124
REMARK   50  A    between atoms: _123  and  _126
REMARK   51  A    between atoms: _126  and  _127
REMARK   52  A    between atoms: _130  and  _132
REMARK   53  A    between atoms: _132  and  _133
REMARK   54  A    between atoms: _132  and  _135
REMARK   55  A    between atoms: _135  and  _136
REMARK   56  A    between atoms: _142  and  _144
REMARK   57  A    between atoms: _144  and  _145
REMARK   58  A    between atoms: _144  and  _147
REMARK   59  A    between atoms: _147  and  _148
REMARK   60  A    between atoms: _153  and  _155
REMARK   61  A    between atoms: _155  and  _156
REMARK   62  A    between atoms: _155  and  _158
REMARK   63  A    between atoms: _158  and  _159
REMARK   64  A    between atoms: _164  and  _166
REMARK   65  A    between atoms: _166  and  _167
REMARK   66  A    between atoms: _166  and  _169
REMARK   67  A    between atoms: _169  and  _170
REMARK   68  A    between atoms: _175  and  _176
REMARK   69  A    between atoms: _178  and  _180
REMARK   70  A    between atoms: _180  and  _181
REMARK   71  A    between atoms: _180  and  _183
REMARK   72  A    between atoms: _183  and  _184
REMARK   73  A    between atoms: _189  and  _190
REMARK   74  A    between atoms: _194  and  _197
REMARK   75  A    between atoms: _197  and  _198
REMARK   76  A    between atoms: _198  and  _240
REMARK   77  A    between atoms: _206  and  _209
REMARK   78  A    between atoms: _209  and  _210
REMARK   79  A    between atoms: _218  and  _220
REMARK   80  A    between atoms: _220  and  _221
REMARK   81  A    between atoms: _220  and  _223
REMARK   82  A    between atoms: _223  and  _224
REMARK   83  A    between atoms: _227  and  _229
REMARK   84  A    between atoms: _229  and  _230
REMARK   85  A    between atoms: _229  and  _232
REMARK   86  A    between atoms: _234  and  _236
REMARK   87  A    between atoms: _236  and  _237
REMARK   88  A    between atoms: _236  and  _239
REMARK   89  A    between atoms: _239  and  _240
REMARK   90  A    between atoms: _241  and  _243
REMARK   91  A    between atoms: _243  and  _244
REMARK   92  A    between atoms: _243  and  _246
REMARK   93  A    between atoms: _246  and  _247
REMARK   94  A    between atoms: _247  and  _248
REMARK   95  A    between atoms: _251  and  _253
REMARK   96  A    between atoms: _253  and  _254
REMARK   97  A    between atoms: _253  and  _256
REMARK   98  A    between atoms: _256  and  _257
REMARK   99  A    between atoms: _262  and  _264
REMARK  100  A    between atoms: _264  and  _265
REMARK  101  A    between atoms: _264  and  _267
REMARK  102  A    between atoms: _267  and  _268
REMARK  103  A    between atoms: _271  and  _273
REMARK  104  A    between atoms: _273  and  _274
REMARK  105  A    between atoms: _273  and  _276
REMARK  106  A    between atoms: _276  and  _277
REMARK  107  A    between atoms: _282  and  _283
REMARK  108  A    between atoms: _285  and  _287
REMARK  109  A    between atoms: _287  and  _288
REMARK  110  A    between atoms: _287  and  _290
REMARK  111  A    between atoms: _290  and  _291
REMARK  112  A    between atoms: _296  and  _298
REMARK  113  A    between atoms: _298  and  _299
REMARK  114  A    between atoms: _298  and  _301
REMARK  115  A    between atoms: _301  and  _302
REMARK  116  A    between atoms: _307  and  _308
REMARK  117  A    between atoms: _310  and  _312
REMARK  118  A    between atoms: _312  and  _313
REMARK  119  A    between atoms: _312  and  _315
REMARK  120  A    between atoms: _315  and  _316
REMARK  121  A    between atoms: _319  and  _321
REMARK  122  A    between atoms: _321  and  _322
REMARK  123  A    between atoms: _321  and  _324
REMARK  124  A    between atoms: _324  and  _325
REMARK  125  A    between atoms: _328  and  _330
REMARK  126  A    between atoms: _330  and  _331
REMARK  127  A    between atoms: _334  and  _336
REMARK  128  A    between atoms: _336  and  _337
REMARK  129  A    between atoms: _336  and  _339
REMARK  130  A    between atoms: _339  and  _340
REMARK  131  A    between atoms: _346  and  _348
REMARK  132  A    between atoms: _348  and  _349
REMARK  133  A    between atoms: _348  and  _351
REMARK  134  A    between atoms: _351  and  _352
REMARK  135  A    between atoms: _352  and  _353
REMARK  136  A    between atoms: _353  and  _354
REMARK  137  A    between atoms: _354  and  _355
REMARK                            x       y       z     vdW  Elec       q    Type
REMARK                         _______ _______ _______ _____ _____    ______ ____
ROOT
ATOM      1  C   ASP A   5     -41.942  23.537  -5.187  0.00  0.00    +0.241 C 
ATOM      2  O   ASP A   5     -41.691  24.298  -4.243  0.00  0.00    -0.273 OA
ATOM      3  N   PHE A   6     -41.082  22.601  -5.579  0.00  0.00    -0.297 N 
ATOM      4  H   PHE A   6     -41.239  22.106  -6.480  0.00  0.00    +0.150 HD
ENDROOT
BRANCH   3   5
ATOM      5  CA  PHE A   6     -39.927  22.260  -4.766  0.00  0.00    +0.153 C 
BRANCH   5   6
ATOM      6  C   PHE A   6     -38.611  22.327  -5.460  0.00  0.00    +0.241 C 
ATOM      7  O   PHE A   6     -37.648  21.884  -4.899  0.00  0.00    -0.273 OA
ATOM      8  N   ASN A   7     -38.553  22.816  -6.687  0.00  0.00    -0.297 N 
ATOM      9  H   ASN A   7     -39.437  23.025  -7.193  0.00  0.00    +0.150 HD
BRANCH   8  10
ATOM     10  CA  ASN A   7     -37.267  23.070  -7.351  0.00  0.00    +0.158 C 
BRANCH  10  11
ATOM     11  C   ASN A   7     -37.012  24.608  -7.259  0.00  0.00    +0.241 C 
ATOM     12  N   ASN A   8     -35.806  24.993  -6.852  0.00  0.00    -0.297 N 
ATOM     13  H   ASN A   8     -35.062  24.279  -6.717  0.00  0.00    +0.150 HD
ATOM     14  O   ASN A   7     -37.912  25.433  -7.487  0.00  0.00    -0.273 OA
BRANCH  12  15
ATOM     15  CA  ASN A   8     -35.505  26.402  -6.590  0.00  0.00    +0.158 C 
BRANCH  15  16
ATOM     16  C   ASN A   8     -36.218  26.918  -5.344  0.00  0.00    +0.241 C 
ATOM     17  N   TYR A   9     -36.162  26.114  -4.292  0.00  0.00    -0.298 N 
ATOM     18  H   TYR A   9     -35.727  25.176  -4.408  0.00  0.00    +0.150 HD
ATOM     19  O   ASN A   8     -36.822  28.007  -5.354  0.00  0.00    -0.273 OA
BRANCH  17  20
ATOM     20  CA  TYR A   9     -36.678  26.479  -2.986  0.00  0.00    +0.141 C 
BRANCH  20  21
ATOM     21  C   TYR A   9     -35.518  26.433  -1.985  0.00  0.00    +0.227 C 
ATOM     22  O   TYR A   9     -34.868  25.403  -1.846  0.00  0.00    -0.286 OA
ENDBRANCH  20  21
BRANCH  20  23
ATOM     23  CB  TYR A   9     -37.805  25.522  -2.539  0.00  0.00    +0.054 C 
BRANCH  23  24
ATOM     24  CG  TYR A   9     -38.513  25.932  -1.251  0.00  0.00    -0.020 A 
ATOM     25  CD2 TYR A   9     -38.005  25.587  -0.006  0.00  0.00    -0.001 A 
ATOM     26  CE2 TYR A   9     -38.643  25.946   1.166  0.00  0.00    +0.036 A 
ATOM     27  CZ  TYR A   9     -39.796  26.671   1.096  0.00  0.00    +0.134 A 
ATOM     28  CE1 TYR A   9     -40.310  27.030  -0.134  0.00  0.00    +0.036 A 
ATOM     29  CD1 TYR A   9     -39.678  26.645  -1.291  0.00  0.00    -0.001 A 
BRANCH  27  30
ATOM     30  OH  TYR A   9     -40.464  27.051   2.244  0.00  0.00    -0.506 OA
ATOM     31  HH  TYR A   9     -39.972  26.719   3.036  0.00  0.00    +0.292 HD
ENDBRANCH  27  30
ENDBRANCH  23  24
ENDBRANCH  20  23
ENDBRANCH  17  20
ENDBRANCH  15  16
BRANCH  15  32
ATOM     32  CB  ASN A   8     -35.892  27.265  -7.781  0.00  0.00    +0.114 C 
BRANCH  32  33
ATOM     33  CG  ASN A   8     -34.762  28.139  -8.233  0.00  0.00    +0.222 C 
ATOM     34  ND2 ASN A   8     -34.851  29.446  -7.946  0.00  0.00    -0.329 N 
ATOM     35 HD21 ASN A   8     -35.674  29.809  -7.424  0.00  0.00    +0.145 HD
ATOM     36 HD22 ASN A   8     -34.097  30.097  -8.246  0.00  0.00    +0.145 HD
ATOM     37  OD1 ASN A   8     -33.801  27.644  -8.856  0.00  0.00    -0.275 OA
ENDBRANCH  32  33
ENDBRANCH  15  32
ENDBRANCH  12  15
ENDBRANCH  10  11
BRANCH  10  38
ATOM     38  CB  ASN A   7     -37.257  22.463  -8.787  0.00  0.00    +0.114 C 
BRANCH  38  39
ATOM     39  CG  ASN A   7     -35.878  22.524  -9.497  0.00  0.00    +0.222 C 
ATOM     40  ND2 ASN A   7     -35.077  21.442  -9.385  0.00  0.00    -0.329 N 
ATOM     41 HD21 ASN A   7     -35.361  20.645  -8.780  0.00  0.00    +0.145 HD
ATOM     42 HD22 ASN A   7     -34.176  21.406  -9.904  0.00  0.00    +0.145 HD
ATOM     43  OD1 ASN A   7     -35.581  23.498 -10.207  0.00  0.00    -0.275 OA
ENDBRANCH  38  39
ENDBRANCH  10  38
ENDBRANCH   8  10
ENDBRANCH   5   6
BRANCH   5  44
ATOM     44  CB  PHE A   6     -40.065  20.853  -4.243  0.00  0.00    +0.055 C 
BRANCH  44  45
ATOM     45  CG  PHE A   6     -41.321  20.621  -3.506  0.00  0.00    -0.020 A 
ATOM     46  CD2 PHE A   6     -41.378  20.828  -2.142  0.00  0.00    -0.004 A 
ATOM     47  CE2 PHE A   6     -42.559  20.628  -1.437  0.00  0.00    -0.000 A 
ATOM     48  CZ  PHE A   6     -43.703  20.211  -2.111  0.00  0.00    -0.000 A 
ATOM     49  CE1 PHE A   6     -43.653  20.004  -3.483  0.00  0.00    -0.000 A 
ATOM     50  CD1 PHE A   6     -42.461  20.214  -4.173  0.00  0.00    -0.004 A 
ENDBRANCH  44  45
ENDBRANCH   5  44
ENDBRANCH   3   5
BRANCH   1  51
ATOM     51  CA  ASP A   5     -43.281  23.666  -5.962  0.00  0.00    +0.160 C 
BRANCH  51  53
ATOM     52  C   MET A   4     -42.867  24.441  -8.227  0.00  0.00    +0.241 C 
ATOM     53  N   ASP A   5     -43.195  23.449  -7.399  0.00  0.00    -0.297 N 
ATOM     54  H   ASP A   5     -43.393  22.504  -7.786  0.00  0.00    +0.150 HD
ATOM     55  O   MET A   4     -42.528  25.550  -7.818  0.00  0.00    -0.273 OA
BRANCH  52  56
ATOM     56  CA  MET A   4     -42.888  24.147  -9.747  0.00  0.00    +0.149 C 
BRANCH  56  59
ATOM     57  C   LEU A   3     -41.250  22.301  -9.793  0.00  0.00    +0.241 C 
ATOM     58  O   LEU A   3     -40.399  22.955  -9.216  0.00  0.00    -0.273 OA
ATOM     59  N   MET A   4     -42.461  22.780 -10.075  0.00  0.00    -0.297 N 
ATOM     60  H   MET A   4     -43.140  22.153 -10.552  0.00  0.00    +0.150 HD
BRANCH  57  61
ATOM     61  CA  LEU A   3     -40.950  20.856 -10.221  0.00  0.00    +0.149 C 
BRANCH  61  64
ATOM     62  C   PRO A   2     -42.214  19.923  -8.371  0.00  0.00    +0.241 C 
ATOM     63  O   PRO A   2     -41.704  20.724  -7.588  0.00  0.00    -0.273 OA
ATOM     64  N   LEU A   3     -41.923  19.906  -9.676  0.00  0.00    -0.297 N 
ATOM     65  H   LEU A   3     -42.387  19.219 -10.304  0.00  0.00    +0.150 HD
BRANCH  62  69
ATOM     66  C   HIS A   1     -45.131  20.283  -8.569  0.00  0.00    +0.242 C 
ATOM     67  O   HIS A   1     -44.499  21.312  -8.357  0.00  0.00    -0.273 OA
ATOM     68  N   PRO A   2     -44.596  19.065  -8.382  0.00  0.00    -0.272 N 
ATOM     69  CA  PRO A   2     -43.246  18.920  -7.834  0.00  0.00    +0.152 C 
ATOM     70  CB  PRO A   2     -42.886  17.487  -8.208  0.00  0.00    +0.031 C 
ATOM     71  CG  PRO A   2     -44.212  16.792  -8.110  0.00  0.00    +0.024 C 
ATOM     72  CD  PRO A   2     -45.178  17.759  -8.727  0.00  0.00    +0.094 C 
BRANCH  66  73
ATOM     73  CA  HIS A   1     -46.581  20.366  -9.062  0.00  0.00    +0.151 C 
BRANCH  73  74
ATOM     74  N   HIS A   1     -47.390  20.483  -7.876  0.00  0.00    -0.238 NA
ATOM     75  H   HIS A   1     -47.454  21.395  -7.381  0.00  0.00    +0.142 HD
ENDBRANCH  73  74
BRANCH  73  76
ATOM     76  CB  HIS A   1     -46.781  21.566 -10.008  0.00  0.00    +0.074 C 
BRANCH  76  77
ATOM     77  CG  HIS A   1     -45.962  21.497 -11.281  0.00  0.00    +0.082 A 
ATOM     78  CD2 HIS A   1     -45.046  20.587 -11.717  0.00  0.00    +0.115 A 
ATOM     79  NE2 HIS A   1     -44.603  21.010 -12.954  0.00  0.00    -0.221 NA
ATOM     80  CE1 HIS A   1     -45.224  22.135 -13.271  0.00  0.00    +0.199 A 
ATOM     81  ND1 HIS A   1     -46.051  22.448 -12.284  0.00  0.00    -0.227 NA
ENDBRANCH  76  77
ENDBRANCH  73  76
ENDBRANCH  66  73
ENDBRANCH  62  69
ENDBRANCH  61  64
BRANCH  61  82
ATOM     82  CB  LEU A   3     -40.807  20.762 -11.749  0.00  0.00    +0.029 C 
BRANCH  82  83
ATOM     83  CG  LEU A   3     -39.933  21.895 -12.343  0.00  0.00    +0.002 C 
ATOM     84  CD2 LEU A   3     -38.442  21.551 -12.440  0.00  0.00    +0.000 C 
ATOM     85  CD1 LEU A   3     -40.451  22.430 -13.710  0.00  0.00    +0.000 C 
ENDBRANCH  82  83
ENDBRANCH  61  82
ENDBRANCH  57  61
ENDBRANCH  56  59
BRANCH  56  86
ATOM     86  CB  MET A   4     -44.277  24.426 -10.349  0.00  0.00    +0.041 C 
BRANCH  86  87
ATOM     87  CG  MET A   4     -44.750  25.901 -10.336  0.00  0.00    +0.060 C 
BRANCH  87  88
ATOM     88  SD  MET A   4     -46.560  26.046 -10.012  0.00  0.00    -0.139 S 
ATOM     89  CE  MET A   4     -46.652  27.570  -9.017  0.00  0.00    +0.069 C 
ENDBRANCH  87  88
ENDBRANCH  86  87
ENDBRANCH  56  86
ENDBRANCH  52  56
ENDBRANCH  51  53
BRANCH  51  90
ATOM     90  CB  ASP A   5     -44.368  22.776  -5.332  0.00  0.00    +0.143 C 
BRANCH  90  91
ATOM     91  CG  ASP A   5     -45.804  23.166  -5.756  0.00  0.00    +0.367 C 
ATOM     92  OD2 ASP A   5     -46.688  22.270  -5.698  0.00  0.00    -0.246 OA
ATOM     93  OD1 ASP A   5     -46.069  24.346  -6.125  0.00  0.00    -0.246 OA
ENDBRANCH  90  91
ENDBRANCH  51  90
ENDBRANCH   1  51
TORSDOF 35
REMARK  Name = ../refined-set-2016/3qlm/3qlm_pocket.pdb
REMARK  137 active torsions:
REMARK  status: ('A' for Active; 'I' for Inactive)
REMARK    1  A    between atoms: _1  and  _3
REMARK    2  A    between atoms: _3  and  _4
REMARK    3  A    between atoms: _3  and  _6
REMARK    4  A    between atoms: _6  and  _7
REMARK    5  A    between atoms: _10  and  _12
REMARK    6  A    between atoms: _12  and  _13
REMARK    7  A    between atoms: _12  and  _15
REMARK    8  A    between atoms: _15  and  _16
REMARK    9  A    between atoms: _26  and  _28
REMARK   10  A    between atoms: _28  and  _29
REMARK   11  A    between atoms: _28  and  _31
REMARK   12  A    between atoms: _31  and  _32
REMARK   13  A    between atoms: _38  and  _40
REMARK   14  A    between atoms: _40  and  _41
REMARK   15  A    between atoms: _40  and  _43
REMARK   16  A    between atoms: _43  and  _44
REMARK   17  A    between atoms: _44  and  _45
REMARK   18  A    between atoms: _45  and  _46
REMARK   19  A    between atoms: _55  and  _57
REMARK   20  A    between atoms: _57  and  _58
REMARK   21  A    between atoms: _57  and  _60
REMARK   22  A    between atoms: _60  and  _61
REMARK   23  A    between atoms: _63  and  _65
REMARK   24  A    between atoms: _65  and  _66
REMARK   25  A    between atoms: _65  and  _68
REMARK   26  A    between atoms: _68  and  _69
REMARK   27  A    between atoms: _72  and  _74
REMARK   28  A    between atoms: _74  and  _75
REMARK   29  A    between atoms: _74  and  _77
REMARK   30  A    between atoms: _77  and  _78
REMARK   31  A    between atoms: _78  and  _79
REMARK   32  A    between atoms: _79  and  _80
REMARK   33  A    between atoms: _80  and  _81
REMARK   34  A    between atoms: _85  and  _87
REMARK   35  A    between atoms: _87  and  _88
REMARK   36  A    between atoms: _87  and  _90
REMARK   37  A    between atoms: _90  and  _91
REMARK   38  A    between atoms: _97  and  _98
REMARK   39  A    between atoms: _103  and  _105
REMARK   40  A    between atoms: _105  and  _106
REMARK   41  A    between atoms: _105  and  _108
REMARK   42  A    between atoms: _108  and  _109
REMARK   43  A    between atoms: _112  and  _114
REMARK   44  A    between atoms: _114  and  _115
REMARK   45  A    between atoms: _114  and  _117
REMARK   46  A    between atoms: _117  and  _118
REMARK   47  A    between atoms: _118  and  _119
REMARK   48  A    between atoms: _121  and  _123
REMARK   49  A    between atoms: _123  and  _124
REMARK   50  A    between atoms: _123  and  _126
REMARK   51  A    between atoms: _126  and  _127
REMARK   52  A    between atoms: _130  and  _132
REMARK   53  A    between atoms: _132  and  _133
REMARK   54  A    between atoms: _132  and  _135
REMARK   55  A    between atoms: _135  and  _136
REMARK   56  A    between atoms: _142  and  _144
REMARK   57  A    between atoms: _144  and  _145
REMARK   58  A    between atoms: _144  and  _147
REMARK   59  A    between atoms: _147  and  _148
REMARK   60  A    between atoms: _153  and  _155
REMARK   61  A    between atoms: _155  and  _156
REMARK   62  A    between atoms: _155  and  _158
REMARK   63  A    between atoms: _158  and  _159
REMARK   64  A    between atoms: _164  and  _166
REMARK   65  A    between atoms: _166  and  _167
REMARK   66  A    between atoms: _166  and  _169
REMARK   67  A    between atoms: _169  and  _170
REMARK   68  A    between atoms: _175  and  _176
REMARK   69  A    between atoms: _178  and  _180
REMARK   70  A    between atoms: _180  and  _181
REMARK   71  A    between atoms: _180  and  _183
REMARK   72  A    between atoms: _183  and  _184
REMARK   73  A    between atoms: _189  and  _190
REMARK   74  A    between atoms: _194  and  _197
REMARK   75  A    between atoms: _197  and  _198
REMARK   76  A    between atoms: _198  and  _240
REMARK   77  A    between atoms: _206  and  _209
REMARK   78  A    between atoms: _209  and  _210
REMARK   79  A    between atoms: _218  and  _220
REMARK   80  A    between atoms: _220  and  _221
REMARK   81  A    between atoms: _220  and  _223
REMARK   82  A    between atoms: _223  and  _224
REMARK   83  A    between atoms: _227  and  _229
REMARK   84  A    between atoms: _229  and  _230
REMARK   85  A    between atoms: _229  and  _232
REMARK   86  A    between atoms: _234  and  _236
REMARK   87  A    between atoms: _236  and  _237
REMARK   88  A    between atoms: _236  and  _239
REMARK   89  A    between atoms: _239  and  _240
REMARK   90  A    between atoms: _241  and  _243
REMARK   91  A    between atoms: _243  and  _244
REMARK   92  A    between atoms: _243  and  _246
REMARK   93  A    between atoms: _246  and  _247
REMARK   94  A    between atoms: _247  and  _248
REMARK   95  A    between atoms: _251  and  _253
REMARK   96  A    between atoms: _253  and  _254
REMARK   97  A    between atoms: _253  and  _256
REMARK   98  A    between atoms: _256  and  _257
REMARK   99  A    between atoms: _262  and  _264
REMARK  100  A    between atoms: _264  and  _265
REMARK  101  A    between atoms: _264  and  _267
REMARK  102  A    between atoms: _267  and  _268
REMARK  103  A    between atoms: _271  and  _273
REMARK  104  A    between atoms: _273  and  _274
REMARK  105  A    between atoms: _273  and  _276
REMARK  106  A    between atoms: _276  and  _277
REMARK  107  A    between atoms: _282  and  _283
REMARK  108  A    between atoms: _285  and  _287
REMARK  109  A    between atoms: _287  and  _288
REMARK  110  A    between atoms: _287  and  _290
REMARK  111  A    between atoms: _290  and  _291
REMARK  112  A    between atoms: _296  and  _298
REMARK  113  A    between atoms: _298  and  _299
REMARK  114  A    between atoms: _298  and  _301
REMARK  115  A    between atoms: _301  and  _302
REMARK  116  A    between atoms: _307  and  _308
REMARK  117  A    between atoms: _310  and  _312
REMARK  118  A    between atoms: _312  and  _313
REMARK  119  A    between atoms: _312  and  _315
REMARK  120  A    between atoms: _315  and  _316
REMARK  121  A    between atoms: _319  and  _321
REMARK  122  A    between atoms: _321  and  _322
REMARK  123  A    between atoms: _321  and  _324
REMARK  124  A    between atoms: _324  and  _325
REMARK  125  A    between atoms: _328  and  _330
REMARK  126  A    between atoms: _330  and  _331
REMARK  127  A    between atoms: _334  and  _336
REMARK  128  A    between atoms: _336  and  _337
REMARK  129  A    between atoms: _336  and  _339
REMARK  130  A    between atoms: _339  and  _340
REMARK  131  A    between atoms: _346  and  _348
REMARK  132  A    between atoms: _348  and  _349
REMARK  133  A    between atoms: _348  and  _351
REMARK  134  A    between atoms: _351  and  _352
REMARK  135  A    between atoms: _352  and  _353
REMARK  136  A    between atoms: _353  and  _354
REMARK  137  A    between atoms: _354  and  _355
REMARK                            x       y       z     vdW  Elec       q    Type
REMARK                         _______ _______ _______ _____ _____    ______ ____
ROOT
ATOM      1  C   UNK A   2     -31.867  22.439  -1.963  0.00  0.00    +0.000 C 
ATOM      2  N   UNK A   2     -33.138  22.983  -2.052  0.00  0.00    +0.000 NA
ATOM      3  H   UNK A   2     -33.446  23.705  -1.370  0.00  0.00    +0.000 HD
ATOM      4  C   UNK A   2     -34.041  22.539  -3.104  0.00  0.00    +0.000 C 
ATOM      5  C   UNK A   2     -33.748  23.119  -4.507  0.00  0.00    +0.000 C 
ATOM      6  O   UNK A   2     -34.133  24.262  -4.800  0.00  0.00    +0.000 OA
ATOM      7  N   UNK A   2     -33.187  22.233  -5.329  0.00  0.00    +0.000 N 
ATOM      8  H   UNK A   2     -33.178  21.227  -5.066  0.00  0.00    +0.000 HD
ATOM      9  C   UNK A   2     -32.579  22.651  -6.603  0.00  0.00    +0.000 C 
ATOM     10  C   UNK A   2     -31.103  22.423  -6.552  0.00  0.00    +0.000 C 
ATOM     11  O   UNK A   2     -30.545  22.383  -5.466  0.00  0.00    +0.000 OA
ATOM     12  N   UNK A   2     -30.458  22.279  -7.712  0.00  0.00    +0.000 N 
ATOM     13  C   UNK A   2     -29.018  21.811  -7.821  0.00  0.00    +0.000 C 
ATOM     14  C   UNK A   2     -27.952  22.183  -6.690  0.00  0.00    +0.000 C 
ATOM     15  O   UNK A   2     -27.866  23.340  -6.250  0.00  0.00    +0.000 OA
ATOM     16  N   UNK A   2     -27.135  21.193  -6.281  0.00  0.00    +0.000 N 
ATOM     17  C   UNK A   2     -26.173  21.350  -5.152  0.00  0.00    +0.000 C 
ATOM     18  C   UNK A   2     -26.865  22.017  -3.974  0.00  0.00    +0.000 C 
ATOM     19  O   UNK A   2     -28.035  21.709  -3.687  0.00  0.00    +0.000 OA
ATOM     20 CA   UNK A   2     -29.823  20.033  -3.838  0.00  0.00    +0.000 Ca
ATOM     21  H   UNK A   2     -27.177  20.278  -6.774  0.00  0.00    +0.000 HD
ATOM     22  H   UNK A   2     -30.970  22.500  -8.590  0.00  0.00    +0.000 HD
ATOM     23  O   UNK A   2     -31.401  21.488  -2.616  0.00  0.00    +0.000 OA
ENDROOT
BRANCH   4  24
ATOM     24  C   UNK A   2     -35.500  22.757  -2.753  0.00  0.00    +0.000 C 
BRANCH  24  25
ATOM     25  S   UNK A   2     -35.947  22.384  -1.106  0.00  0.00    +0.000 S 
BRANCH  25  26
ATOM     26  S   UNK A   2     -35.585  20.204  -0.805  0.00  0.00    +0.000 S 
BRANCH  26  27
ATOM     27  C   UNK A   2     -33.965  20.097  -0.116  0.00  0.00    +0.000 C 
BRANCH  27  28
ATOM     28  C   UNK A   2     -33.799  18.840   0.705  0.00  0.00    +0.000 C 
BRANCH  28  29
ATOM     29  C   UNK A   2     -32.358  18.617   1.046  0.00  0.00    +0.000 C 
ATOM     30  N   GLU A   3     -31.844  19.274   2.086  0.00  0.00    +0.000 N 
ATOM     31  H   GLU A   3     -32.415  19.929   2.657  0.00  0.00    +0.000 HD
ATOM     32  O   UNK A   2     -31.706  17.808   0.382  0.00  0.00    +0.000 OA
BRANCH  30  33
ATOM     33  CA  GLU A   3     -30.421  19.020   2.382  0.00  0.00    +0.000 C 
BRANCH  33  34
ATOM     34  C   GLU A   3     -30.121  17.584   2.770  0.00  0.00    +0.000 C 
ATOM     35  O   GLU A   3     -29.103  16.983   2.318  0.00  0.00    +0.000 OA
ENDBRANCH  33  34
BRANCH  33  36
ATOM     36  CB  GLU A   3     -29.850  19.948   3.435  0.00  0.00    +0.000 C 
BRANCH  36  37
ATOM     37  CG  GLU A   3     -28.424  19.534   3.825  0.00  0.00    +0.000 C 
BRANCH  37  38
ATOM     38  CD  GLU A   3     -27.994  20.179   5.111  0.00  0.00    +0.000 C 
ATOM     39  OE2 GLU A   3     -28.876  20.468   5.951  0.00  0.00    +0.000 OA
ATOM     40  OE1 GLU A   3     -26.779  20.415   5.271  0.00  0.00    +0.000 OA
ENDBRANCH  37  38
ENDBRANCH  36  37
ENDBRANCH  33  36
ENDBRANCH  30  33
ENDBRANCH  28  29
BRANCH  28  41
ATOM     41  N   UNK A   2     -34.746  19.030   1.808  0.00  0.00    +0.000 N 
ATOM     42  C   CYS A   1     -34.737  17.970   2.635  0.00  0.00    +0.000 C 
ATOM     43  O   CYS A   1     -34.209  16.875   2.346  0.00  0.00    +0.000 OA
ATOM     44  H   UNK A   2     -35.344  19.871   1.934  0.00  0.00    +0.000 HD
BRANCH  42  45
ATOM     45  CA  CYS A   1     -35.620  18.127   3.904  0.00  0.00    +0.000 C 
BRANCH  45  46
ATOM     46  CB  CYS A   1     -37.172  18.089   3.412  0.00  0.00    +0.000 C 
ATOM     47  SG  CYS A   1     -38.455  18.080   4.764  0.00  0.00    +0.000 S 
ENDBRANCH  45  46
BRANCH  45  48
ATOM     48  N   CYS A   1     -35.232  19.384   4.591  0.00  0.00    +0.000 NA
ATOM     49  H   CYS A   1     -35.923  20.153   4.706  0.00  0.00    +0.000 HD
ENDBRANCH  45  48
ENDBRANCH  42  45
ENDBRANCH  28  41
ENDBRANCH  27  28
ENDBRANCH  26  27
ENDBRANCH  25  26
ENDBRANCH  24  25
ENDBRANCH   4  24
BRANCH   1  50
ATOM     50  C   UNK A   2     -30.898  23.068  -0.954  0.00  0.00    +0.000 C 
BRANCH  50  51
ATOM     51  N   UNK A   2     -31.206  24.480  -0.568  0.00  0.00    +0.000 NA
ATOM     52  H   UNK A   2     -32.126  24.671  -0.122  0.00  0.00    +0.000 HD
ENDBRANCH  50  51
BRANCH  50  53
ATOM     53  C   UNK A   2     -30.740  22.127   0.257  0.00  0.00    +0.000 C 
BRANCH  53  54
ATOM     54  C   UNK A   2     -29.436  22.389   0.885  0.00  0.00    +0.000 A 
ATOM     55  C   UNK A   2     -29.308  23.430   1.794  0.00  0.00    +0.000 A 
ATOM     56  C   UNK A   2     -28.105  23.737   2.375  0.00  0.00    +0.000 A 
ATOM     57  C   UNK A   2     -26.982  23.055   2.047  0.00  0.00    +0.000 A 
ATOM     58  C   UNK A   2     -27.021  21.999   1.123  0.00  0.00    +0.000 A 
ATOM     59  C   UNK A   2     -28.280  21.667   0.532  0.00  0.00    +0.000 A 
BRANCH  57  60
ATOM     60  O   UNK A   2     -25.841  23.490   2.664  0.00  0.00    +0.000 OA
ATOM     61  H   UNK A   2     -25.679  24.437   2.425  0.00  0.00    +0.000 HD
ENDBRANCH  57  60
ENDBRANCH  53  54
ENDBRANCH  50  53
ENDBRANCH   1  50
BRANCH  13  62
ATOM     62  C   UNK A   2     -28.445  22.116  -9.233  0.00  0.00    +0.000 C 
BRANCH  62  63
ATOM     63  C   UNK A   2     -27.340  21.130  -9.619  0.00  0.00    +0.000 C 
ATOM     64  C   UNK A   2     -27.952  19.928 -10.375  0.00  0.00    +0.000 C 
ATOM     65  C   UNK A   2     -26.167  21.791 -10.397  0.00  0.00    +0.000 C 
ENDBRANCH  62  63
ENDBRANCH  13  62
TORSDOF 22
REMARK  Name = ../refined-set-2016/3qlm/3qlm_pocket.pdb
REMARK  137 active torsions:
REMARK  status: ('A' for Active; 'I' for Inactive)
REMARK    1  A    between atoms: _1  and  _3
REMARK    2  A    between atoms: _3  and  _4
REMARK    3  A    between atoms: _3  and  _6
REMARK    4  A    between atoms: _6  and  _7
REMARK    5  A    between atoms: _10  and  _12
REMARK    6  A    between atoms: _12  and  _13
REMARK    7  A    between atoms: _12  and  _15
REMARK    8  A    between atoms: _15  and  _16
REMARK    9  A    between atoms: _26  and  _28
REMARK   10  A    between atoms: _28  and  _29
REMARK   11  A    between atoms: _28  and  _31
REMARK   12  A    between atoms: _31  and  _32
REMARK   13  A    between atoms: _38  and  _40
REMARK   14  A    between atoms: _40  and  _41
REMARK   15  A    between atoms: _40  and  _43
REMARK   16  A    between atoms: _43  and  _44
REMARK   17  A    between atoms: _44  and  _45
REMARK   18  A    between atoms: _45  and  _46
REMARK   19  A    between atoms: _55  and  _57
REMARK   20  A    between atoms: _57  and  _58
REMARK   21  A    between atoms: _57  and  _60
REMARK   22  A    between atoms: _60  and  _61
REMARK   23  A    between atoms: _63  and  _65
REMARK   24  A    between atoms: _65  and  _66
REMARK   25  A    between atoms: _65  and  _68
REMARK   26  A    between atoms: _68  and  _69
REMARK   27  A    between atoms: _72  and  _74
REMARK   28  A    between atoms: _74  and  _75
REMARK   29  A    between atoms: _74  and  _77
REMARK   30  A    between atoms: _77  and  _78
REMARK   31  A    between atoms: _78  and  _79
REMARK   32  A    between atoms: _79  and  _80
REMARK   33  A    between atoms: _80  and  _81
REMARK   34  A    between atoms: _85  and  _87
REMARK   35  A    between atoms: _87  and  _88
REMARK   36  A    between atoms: _87  and  _90
REMARK   37  A    between atoms: _90  and  _91
REMARK   38  A    between atoms: _97  and  _98
REMARK   39  A    between atoms: _103  and  _105
REMARK   40  A    between atoms: _105  and  _106
REMARK   41  A    between atoms: _105  and  _108
REMARK   42  A    between atoms: _108  and  _109
REMARK   43  A    between atoms: _112  and  _114
REMARK   44  A    between atoms: _114  and  _115
REMARK   45  A    between atoms: _114  and  _117
REMARK   46  A    between atoms: _117  and  _118
REMARK   47  A    between atoms: _118  and  _119
REMARK   48  A    between atoms: _121  and  _123
REMARK   49  A    between atoms: _123  and  _124
REMARK   50  A    between atoms: _123  and  _126
REMARK   51  A    between atoms: _126  and  _127
REMARK   52  A    between atoms: _130  and  _132
REMARK   53  A    between atoms: _132  and  _133
REMARK   54  A    between atoms: _132  and  _135
REMARK   55  A    between atoms: _135  and  _136
REMARK   56  A    between atoms: _142  and  _144
REMARK   57  A    between atoms: _144  and  _145
REMARK   58  A    between atoms: _144  and  _147
REMARK   59  A    between atoms: _147  and  _148
REMARK   60  A    between atoms: _153  and  _155
REMARK   61  A    between atoms: _155  and  _156
REMARK   62  A    between atoms: _155  and  _158
REMARK   63  A    between atoms: _158  and  _159
REMARK   64  A    between atoms: _164  and  _166
REMARK   65  A    between atoms: _166  and  _167
REMARK   66  A    between atoms: _166  and  _169
REMARK   67  A    between atoms: _169  and  _170
REMARK   68  A    between atoms: _175  and  _176
REMARK   69  A    between atoms: _178  and  _180
REMARK   70  A    between atoms: _180  and  _181
REMARK   71  A    between atoms: _180  and  _183
REMARK   72  A    between atoms: _183  and  _184
REMARK   73  A    between atoms: _189  and  _190
REMARK   74  A    between atoms: _194  and  _197
REMARK   75  A    between atoms: _197  and  _198
REMARK   76  A    between atoms: _198  and  _240
REMARK   77  A    between atoms: _206  and  _209
REMARK   78  A    between atoms: _209  and  _210
REMARK   79  A    between atoms: _218  and  _220
REMARK   80  A    between atoms: _220  and  _221
REMARK   81  A    between atoms: _220  and  _223
REMARK   82  A    between atoms: _223  and  _224
REMARK   83  A    between atoms: _227  and  _229
REMARK   84  A    between atoms: _229  and  _230
REMARK   85  A    between atoms: _229  and  _232
REMARK   86  A    between atoms: _234  and  _236
REMARK   87  A    between atoms: _236  and  _237
REMARK   88  A    between atoms: _236  and  _239
REMARK   89  A    between atoms: _239  and  _240
REMARK   90  A    between atoms: _241  and  _243
REMARK   91  A    between atoms: _243  and  _244
REMARK   92  A    between atoms: _243  and  _246
REMARK   93  A    between atoms: _246  and  _247
REMARK   94  A    between atoms: _247  and  _248
REMARK   95  A    between atoms: _251  and  _253
REMARK   96  A    between atoms: _253  and  _254
REMARK   97  A    between atoms: _253  and  _256
REMARK   98  A    between atoms: _256  and  _257
REMARK   99  A    between atoms: _262  and  _264
REMARK  100  A    between atoms: _264  and  _265
REMARK  101  A    between atoms: _264  and  _267
REMARK  102  A    between atoms: _267  and  _268
REMARK  103  A    between atoms: _271  and  _273
REMARK  104  A    between atoms: _273  and  _274
REMARK  105  A    between atoms: _273  and  _276
REMARK  106  A    between atoms: _276  and  _277
REMARK  107  A    between atoms: _282  and  _283
REMARK  108  A    between atoms: _285  and  _287
REMARK  109  A    between atoms: _287  and  _288
REMARK  110  A    between atoms: _287  and  _290
REMARK  111  A    between atoms: _290  and  _291
REMARK  112  A    between atoms: _296  and  _298
REMARK  113  A    between atoms: _298  and  _299
REMARK  114  A    between atoms: _298  and  _301
REMARK  115  A    between atoms: _301  and  _302
REMARK  116  A    between atoms: _307  and  _308
REMARK  117  A    between atoms: _310  and  _312
REMARK  118  A    between atoms: _312  and  _313
REMARK  119  A    between atoms: _312  and  _315
REMARK  120  A    between atoms: _315  and  _316
REMARK  121  A    between atoms: _319  and  _321
REMARK  122  A    between atoms: _321  and  _322
REMARK  123  A    between atoms: _321  and  _324
REMARK  124  A    between atoms: _324  and  _325
REMARK  125  A    between atoms: _328  and  _330
REMARK  126  A    between atoms: _330  and  _331
REMARK  127  A    between atoms: _334  and  _336
REMARK  128  A    between atoms: _336  and  _337
REMARK  129  A    between atoms: _336  and  _339
REMARK  130  A    between atoms: _339  and  _340
REMARK  131  A    between atoms: _346  and  _348
REMARK  132  A    between atoms: _348  and  _349
REMARK  133  A    between atoms: _348  and  _351
REMARK  134  A    between atoms: _351  and  _352
REMARK  135  A    between atoms: _352  and  _353
REMARK  136  A    between atoms: _353  and  _354
REMARK  137  A    between atoms: _354  and  _355
REMARK                            x       y       z     vdW  Elec       q    Type
REMARK                         _______ _______ _______ _____ _____    ______ ____
ROOT
ATOM      1  CA  LEU A   1     -38.623  22.101   4.016  0.00  0.00    +0.133 C 
ENDROOT
BRANCH   1   2
ATOM      2  N   LEU A   1     -38.631  22.435   5.457  0.00  0.00    -0.239 NA
ATOM      3  H   LEU A   1     -39.348  23.099   5.814  0.00  0.00    +0.142 HD
ENDBRANCH   1   2
BRANCH   1   4
ATOM      4  C   LEU A   1     -37.216  22.021   3.392  0.00  0.00    +0.224 C 
ATOM      5  O   LEU A   1     -36.813  20.948   2.935  0.00  0.00    -0.287 OA
ENDBRANCH   1   4
BRANCH   1   6
ATOM      6  CB  LEU A   1     -39.526  23.001   3.190  0.00  0.00    +0.025 C 
BRANCH   6   7
ATOM      7  CG  LEU A   1     -39.730  22.471   1.763  0.00  0.00    +0.002 C 
ATOM      8  CD2 LEU A   1     -39.804  20.976   1.719  0.00  0.00    +0.000 C 
ATOM      9  CD1 LEU A   1     -40.987  23.078   1.099  0.00  0.00    +0.000 C 
ENDBRANCH   6   7
ENDBRANCH   1   6
TORSDOF 4
REMARK  Name = ../refined-set-2016/3qlm/3qlm_pocket.pdb
REMARK  137 active torsions:
REMARK  status: ('A' for Active; 'I' for Inactive)
REMARK    1  A    between atoms: _1  and  _3
REMARK    2  A    between atoms: _3  and  _4
REMARK    3  A    between atoms: _3  and  _6
REMARK    4  A    between atoms: _6  and  _7
REMARK    5  A    between atoms: _10  and  _12
REMARK    6  A    between atoms: _12  and  _13
REMARK    7  A    between atoms: _12  and  _15
REMARK    8  A    between atoms: _15  and  _16
REMARK    9  A    between atoms: _26  and  _28
REMARK   10  A    between atoms: _28  and  _29
REMARK   11  A    between atoms: _28  and  _31
REMARK   12  A    between atoms: _31  and  _32
REMARK   13  A    between atoms: _38  and  _40
REMARK   14  A    between atoms: _40  and  _41
REMARK   15  A    between atoms: _40  and  _43
REMARK   16  A    between atoms: _43  and  _44
REMARK   17  A    between atoms: _44  and  _45
REMARK   18  A    between atoms: _45  and  _46
REMARK   19  A    between atoms: _55  and  _57
REMARK   20  A    between atoms: _57  and  _58
REMARK   21  A    between atoms: _57  and  _60
REMARK   22  A    between atoms: _60  and  _61
REMARK   23  A    between atoms: _63  and  _65
REMARK   24  A    between atoms: _65  and  _66
REMARK   25  A    between atoms: _65  and  _68
REMARK   26  A    between atoms: _68  and  _69
REMARK   27  A    between atoms: _72  and  _74
REMARK   28  A    between atoms: _74  and  _75
REMARK   29  A    between atoms: _74  and  _77
REMARK   30  A    between atoms: _77  and  _78
REMARK   31  A    between atoms: _78  and  _79
REMARK   32  A    between atoms: _79  and  _80
REMARK   33  A    between atoms: _80  and  _81
REMARK   34  A    between atoms: _85  and  _87
REMARK   35  A    between atoms: _87  and  _88
REMARK   36  A    between atoms: _87  and  _90
REMARK   37  A    between atoms: _90  and  _91
REMARK   38  A    between atoms: _97  and  _98
REMARK   39  A    between atoms: _103  and  _105
REMARK   40  A    between atoms: _105  and  _106
REMARK   41  A    between atoms: _105  and  _108
REMARK   42  A    between atoms: _108  and  _109
REMARK   43  A    between atoms: _112  and  _114
REMARK   44  A    between atoms: _114  and  _115
REMARK   45  A    between atoms: _114  and  _117
REMARK   46  A    between atoms: _117  and  _118
REMARK   47  A    between atoms: _118  and  _119
REMARK   48  A    between atoms: _121  and  _123
REMARK   49  A    between atoms: _123  and  _124
REMARK   50  A    between atoms: _123  and  _126
REMARK   51  A    between atoms: _126  and  _127
REMARK   52  A    between atoms: _130  and  _132
REMARK   53  A    between atoms: _132  and  _133
REMARK   54  A    between atoms: _132  and  _135
REMARK   55  A    between atoms: _135  and  _136
REMARK   56  A    between atoms: _142  and  _144
REMARK   57  A    between atoms: _144  and  _145
REMARK   58  A    between atoms: _144  and  _147
REMARK   59  A    between atoms: _147  and  _148
REMARK   60  A    between atoms: _153  and  _155
REMARK   61  A    between atoms: _155  and  _156
REMARK   62  A    between atoms: _155  and  _158
REMARK   63  A    between atoms: _158  and  _159
REMARK   64  A    between atoms: _164  and  _166
REMARK   65  A    between atoms: _166  and  _167
REMARK   66  A    between atoms: _166  and  _169
REMARK   67  A    between atoms: _169  and  _170
REMARK   68  A    between atoms: _175  and  _176
REMARK   69  A    between atoms: _178  and  _180
REMARK   70  A    between atoms: _180  and  _181
REMARK   71  A    between atoms: _180  and  _183
REMARK   72  A    between atoms: _183  and  _184
REMARK   73  A    between atoms: _189  and  _190
REMARK   74  A    between atoms: _194  and  _197
REMARK   75  A    between atoms: _197  and  _198
REMARK   76  A    between atoms: _198  and  _240
REMARK   77  A    between atoms: _206  and  _209
REMARK   78  A    between atoms: _209  and  _210
REMARK   79  A    between atoms: _218  and  _220
REMARK   80  A    between atoms: _220  and  _221
REMARK   81  A    between atoms: _220  and  _223
REMARK   82  A    between atoms: _223  and  _224
REMARK   83  A    between atoms: _227  and  _229
REMARK   84  A    between atoms: _229  and  _230
REMARK   85  A    between atoms: _229  and  _232
REMARK   86  A    between atoms: _234  and  _236
REMARK   87  A    between atoms: _236  and  _237
REMARK   88  A    between atoms: _236  and  _239
REMARK   89  A    between atoms: _239  and  _240
REMARK   90  A    between atoms: _241  and  _243
REMARK   91  A    between atoms: _243  and  _244
REMARK   92  A    between atoms: _243  and  _246
REMARK   93  A    between atoms: _246  and  _247
REMARK   94  A    between atoms: _247  and  _248
REMARK   95  A    between atoms: _251  and  _253
REMARK   96  A    between atoms: _253  and  _254
REMARK   97  A    between atoms: _253  and  _256
REMARK   98  A    between atoms: _256  and  _257
REMARK   99  A    between atoms: _262  and  _264
REMARK  100  A    between atoms: _264  and  _265
REMARK  101  A    between atoms: _264  and  _267
REMARK  102  A    between atoms: _267  and  _268
REMARK  103  A    between atoms: _271  and  _273
REMARK  104  A    between atoms: _273  and  _274
REMARK  105  A    between atoms: _273  and  _276
REMARK  106  A    between atoms: _276  and  _277
REMARK  107  A    between atoms: _282  and  _283
REMARK  108  A    between atoms: _285  and  _287
REMARK  109  A    between atoms: _287  and  _288
REMARK  110  A    between atoms: _287  and  _290
REMARK  111  A    between atoms: _290  and  _291
REMARK  112  A    between atoms: _296  and  _298
REMARK  113  A    between atoms: _298  and  _299
REMARK  114  A    between atoms: _298  and  _301
REMARK  115  A    between atoms: _301  and  _302
REMARK  116  A    between atoms: _307  and  _308
REMARK  117  A    between atoms: _310  and  _312
REMARK  118  A    between atoms: _312  and  _313
REMARK  119  A    between atoms: _312  and  _315
REMARK  120  A    between atoms: _315  and  _316
REMARK  121  A    between atoms: _319  and  _321
REMARK  122  A    between atoms: _321  and  _322
REMARK  123  A    between atoms: _321  and  _324
REMARK  124  A    between atoms: _324  and  _325
REMARK  125  A    between atoms: _328  and  _330
REMARK  126  A    between atoms: _330  and  _331
REMARK  127  A    between atoms: _334  and  _336
REMARK  128  A    between atoms: _336  and  _337
REMARK  129  A    between atoms: _336  and  _339
REMARK  130  A    between atoms: _339  and  _340
REMARK  131  A    between atoms: _346  and  _348
REMARK  132  A    between atoms: _348  and  _349
REMARK  133  A    between atoms: _348  and  _351
REMARK  134  A    between atoms: _351  and  _352
REMARK  135  A    between atoms: _352  and  _353
REMARK  136  A    between atoms: _353  and  _354
REMARK  137  A    between atoms: _354  and  _355
REMARK                            x       y       z     vdW  Elec       q    Type
REMARK                         _______ _______ _______ _____ _____    ______ ____
ROOT
ATOM      1  C   HIS A   1     -30.521  14.384  -0.193  0.00  0.00    +0.239 C 
ATOM      2  N   ASP A   2     -29.913  15.560  -0.316  0.00  0.00    -0.298 N 
ATOM      3  H   ASP A   2     -30.364  16.434   0.022  0.00  0.00    +0.150 HD
ATOM      4  O   HIS A   1     -30.029  13.339  -0.643  0.00  0.00    -0.274 OA
ENDROOT
BRANCH   1   5
ATOM      5  CA  HIS A   1     -31.842  14.317   0.556  0.00  0.00    +0.151 C 
BRANCH   5   6
ATOM      6  N   HIS A   1     -31.824  15.041   1.816  0.00  0.00    -0.238 NA
ATOM      7  H   HIS A   1     -32.518  15.798   1.981  0.00  0.00    +0.142 HD
ENDBRANCH   5   6
BRANCH   5   8
ATOM      8  CB  HIS A   1     -33.001  14.746  -0.293  0.00  0.00    +0.074 C 
BRANCH   8   9
ATOM      9  CG  HIS A   1     -33.252  13.869  -1.469  0.00  0.00    +0.082 A 
ATOM     10  CD2 HIS A   1     -33.727  12.603  -1.552  0.00  0.00    +0.115 A 
ATOM     11  NE2 HIS A   1     -33.832  12.291  -2.889  0.00  0.00    -0.221 NA
ATOM     12  CE1 HIS A   1     -33.457  13.342  -3.604  0.00  0.00    +0.199 A 
ATOM     13  ND1 HIS A   1     -33.091  14.306  -2.775  0.00  0.00    -0.227 NA
ENDBRANCH   8   9
ENDBRANCH   5   8
ENDBRANCH   1   5
BRANCH   2  14
ATOM     14  CA  ASP A   2     -28.589  15.586  -0.942  0.00  0.00    +0.148 C 
BRANCH  14  15
ATOM     15  C   ASP A   2     -27.654  14.683  -0.173  0.00  0.00    +0.227 C 
ATOM     16  O   ASP A   2     -26.853  13.929  -0.766  0.00  0.00    -0.286 OA
ENDBRANCH  14  15
BRANCH  14  17
ATOM     17  CB  ASP A   2     -27.941  16.956  -0.889  0.00  0.00    +0.142 C 
BRANCH  17  18
ATOM     18  CG  ASP A   2     -28.545  17.931  -1.821  0.00  0.00    +0.367 C 
ATOM     19  OD2 ASP A   2     -27.804  18.890  -2.141  0.00  0.00    -0.246 OA
ATOM     20  OD1 ASP A   2     -29.733  17.792  -2.215  0.00  0.00    -0.246 OA
ENDBRANCH  17  18
ENDBRANCH  14  17
ENDBRANCH   2  14
TORSDOF 8
REMARK  Name = ../refined-set-2016/3qlm/3qlm_pocket.pdb
REMARK  137 active torsions:
REMARK  status: ('A' for Active; 'I' for Inactive)
REMARK    1  A    between atoms: _1  and  _3
REMARK    2  A    between atoms: _3  and  _4
REMARK    3  A    between atoms: _3  and  _6
REMARK    4  A    between atoms: _6  and  _7
REMARK    5  A    between atoms: _10  and  _12
REMARK    6  A    between atoms: _12  and  _13
REMARK    7  A    between atoms: _12  and  _15
REMARK    8  A    between atoms: _15  and  _16
REMARK    9  A    between atoms: _26  and  _28
REMARK   10  A    between atoms: _28  and  _29
REMARK   11  A    between atoms: _28  and  _31
REMARK   12  A    between atoms: _31  and  _32
REMARK   13  A    between atoms: _38  and  _40
REMARK   14  A    between atoms: _40  and  _41
REMARK   15  A    between atoms: _40  and  _43
REMARK   16  A    between atoms: _43  and  _44
REMARK   17  A    between atoms: _44  and  _45
REMARK   18  A    between atoms: _45  and  _46
REMARK   19  A    between atoms: _55  and  _57
REMARK   20  A    between atoms: _57  and  _58
REMARK   21  A    between atoms: _57  and  _60
REMARK   22  A    between atoms: _60  and  _61
REMARK   23  A    between atoms: _63  and  _65
REMARK   24  A    between atoms: _65  and  _66
REMARK   25  A    between atoms: _65  and  _68
REMARK   26  A    between atoms: _68  and  _69
REMARK   27  A    between atoms: _72  and  _74
REMARK   28  A    between atoms: _74  and  _75
REMARK   29  A    between atoms: _74  and  _77
REMARK   30  A    between atoms: _77  and  _78
REMARK   31  A    between atoms: _78  and  _79
REMARK   32  A    between atoms: _79  and  _80
REMARK   33  A    between atoms: _80  and  _81
REMARK   34  A    between atoms: _85  and  _87
REMARK   35  A    between atoms: _87  and  _88
REMARK   36  A    between atoms: _87  and  _90
REMARK   37  A    between atoms: _90  and  _91
REMARK   38  A    between atoms: _97  and  _98
REMARK   39  A    between atoms: _103  and  _105
REMARK   40  A    between atoms: _105  and  _106
REMARK   41  A    between atoms: _105  and  _108
REMARK   42  A    between atoms: _108  and  _109
REMARK   43  A    between atoms: _112  and  _114
REMARK   44  A    between atoms: _114  and  _115
REMARK   45  A    between atoms: _114  and  _117
REMARK   46  A    between atoms: _117  and  _118
REMARK   47  A    between atoms: _118  and  _119
REMARK   48  A    between atoms: _121  and  _123
REMARK   49  A    between atoms: _123  and  _124
REMARK   50  A    between atoms: _123  and  _126
REMARK   51  A    between atoms: _126  and  _127
REMARK   52  A    between atoms: _130  and  _132
REMARK   53  A    between atoms: _132  and  _133
REMARK   54  A    between atoms: _132  and  _135
REMARK   55  A    between atoms: _135  and  _136
REMARK   56  A    between atoms: _142  and  _144
REMARK   57  A    between atoms: _144  and  _145
REMARK   58  A    between atoms: _144  and  _147
REMARK   59  A    between atoms: _147  and  _148
REMARK   60  A    between atoms: _153  and  _155
REMARK   61  A    between atoms: _155  and  _156
REMARK   62  A    between atoms: _155  and  _158
REMARK   63  A    between atoms: _158  and  _159
REMARK   64  A    between atoms: _164  and  _166
REMARK   65  A    between atoms: _166  and  _167
REMARK   66  A    between atoms: _166  and  _169
REMARK   67  A    between atoms: _169  and  _170
REMARK   68  A    between atoms: _175  and  _176
REMARK   69  A    between atoms: _178  and  _180
REMARK   70  A    between atoms: _180  and  _181
REMARK   71  A    between atoms: _180  and  _183
REMARK   72  A    between atoms: _183  and  _184
REMARK   73  A    between atoms: _189  and  _190
REMARK   74  A    between atoms: _194  and  _197
REMARK   75  A    between atoms: _197  and  _198
REMARK   76  A    between atoms: _198  and  _240
REMARK   77  A    between atoms: _206  and  _209
REMARK   78  A    between atoms: _209  and  _210
REMARK   79  A    between atoms: _218  and  _220
REMARK   80  A    between atoms: _220  and  _221
REMARK   81  A    between atoms: _220  and  _223
REMARK   82  A    between atoms: _223  and  _224
REMARK   83  A    between atoms: _227  and  _229
REMARK   84  A    between atoms: _229  and  _230
REMARK   85  A    between atoms: _229  and  _232
REMARK   86  A    between atoms: _234  and  _236
REMARK   87  A    between atoms: _236  and  _237
REMARK   88  A    between atoms: _236  and  _239
REMARK   89  A    between atoms: _239  and  _240
REMARK   90  A    between atoms: _241  and  _243
REMARK   91  A    between atoms: _243  and  _244
REMARK   92  A    between atoms: _243  and  _246
REMARK   93  A    between atoms: _246  and  _247
REMARK   94  A    between atoms: _247  and  _248
REMARK   95  A    between atoms: _251  and  _253
REMARK   96  A    between atoms: _253  and  _254
REMARK   97  A    between atoms: _253  and  _256
REMARK   98  A    between atoms: _256  and  _257
REMARK   99  A    between atoms: _262  and  _264
REMARK  100  A    between atoms: _264  and  _265
REMARK  101  A    between atoms: _264  and  _267
REMARK  102  A    between atoms: _267  and  _268
REMARK  103  A    between atoms: _271  and  _273
REMARK  104  A    between atoms: _273  and  _274
REMARK  105  A    between atoms: _273  and  _276
REMARK  106  A    between atoms: _276  and  _277
REMARK  107  A    between atoms: _282  and  _283
REMARK  108  A    between atoms: _285  and  _287
REMARK  109  A    between atoms: _287  and  _288
REMARK  110  A    between atoms: _287  and  _290
REMARK  111  A    between atoms: _290  and  _291
REMARK  112  A    between atoms: _296  and  _298
REMARK  113  A    between atoms: _298  and  _299
REMARK  114  A    between atoms: _298  and  _301
REMARK  115  A    between atoms: _301  and  _302
REMARK  116  A    between atoms: _307  and  _308
REMARK  117  A    between atoms: _310  and  _312
REMARK  118  A    between atoms: _312  and  _313
REMARK  119  A    between atoms: _312  and  _315
REMARK  120  A    between atoms: _315  and  _316
REMARK  121  A    between atoms: _319  and  _321
REMARK  122  A    between atoms: _321  and  _322
REMARK  123  A    between atoms: _321  and  _324
REMARK  124  A    between atoms: _324  and  _325
REMARK  125  A    between atoms: _328  and  _330
REMARK  126  A    between atoms: _330  and  _331
REMARK  127  A    between atoms: _334  and  _336
REMARK  128  A    between atoms: _336  and  _337
REMARK  129  A    between atoms: _336  and  _339
REMARK  130  A    between atoms: _339  and  _340
REMARK  131  A    between atoms: _346  and  _348
REMARK  132  A    between atoms: _348  and  _349
REMARK  133  A    between atoms: _348  and  _351
REMARK  134  A    between atoms: _351  and  _352
REMARK  135  A    between atoms: _352  and  _353
REMARK  136  A    between atoms: _353  and  _354
REMARK  137  A    between atoms: _354  and  _355
REMARK                            x       y       z     vdW  Elec       q    Type
REMARK                         _______ _______ _______ _____ _____    ______ ____
ROOT
ATOM      1  CG  TYR A   1     -29.299  11.255  -4.057  0.00  0.00    -0.020 A 
ATOM      2  CD2 TYR A   1     -30.333  10.634  -3.339  0.00  0.00    -0.001 A 
ATOM      3  CE2 TYR A   1     -31.492  10.244  -3.973  0.00  0.00    +0.036 A 
ATOM      4  CZ  TYR A   1     -31.644  10.454  -5.319  0.00  0.00    +0.134 A 
ATOM      5  CE1 TYR A   1     -30.647  11.059  -6.072  0.00  0.00    +0.036 A 
ATOM      6  CD1 TYR A   1     -29.476  11.461  -5.443  0.00  0.00    -0.001 A 
ENDROOT
BRANCH   4   7
ATOM      7  OH  TYR A   1     -32.809  10.034  -5.877  0.00  0.00    -0.506 OA
ATOM      8  HH  TYR A   1     -33.383   9.633  -5.177  0.00  0.00    +0.292 HD
ENDBRANCH   4   7
BRANCH   1   9
ATOM      9  CB  TYR A   1     -28.035  11.683  -3.357  0.00  0.00    +0.051 C 
BRANCH   9  10
ATOM     10  CA  TYR A   1     -27.602  10.712  -2.249  0.00  0.00    +0.137 C 
BRANCH  10  11
ATOM     11  N   TYR A   1     -28.166  11.085  -0.946  0.00  0.00    -0.239 NA
ATOM     12  H   TYR A   1     -28.711  11.967  -0.862  0.00  0.00    +0.142 HD
ENDBRANCH  10  11
BRANCH  10  13
ATOM     13  C   TYR A   1     -26.097  10.634  -2.210  0.00  0.00    +0.224 C 
ATOM     14  O   TYR A   1     -25.488   9.759  -2.851  0.00  0.00    -0.287 OA
ENDBRANCH  10  13
ENDBRANCH   9  10
ENDBRANCH   1   9
TORSDOF 5
REMARK  Name = ../refined-set-2016/3qlm/3qlm_pocket.pdb
REMARK  137 active torsions:
REMARK  status: ('A' for Active; 'I' for Inactive)
REMARK    1  A    between atoms: _1  and  _3
REMARK    2  A    between atoms: _3  and  _4
REMARK    3  A    between atoms: _3  and  _6
REMARK    4  A    between atoms: _6  and  _7
REMARK    5  A    between atoms: _10  and  _12
REMARK    6  A    between atoms: _12  and  _13
REMARK    7  A    between atoms: _12  and  _15
REMARK    8  A    between atoms: _15  and  _16
REMARK    9  A    between atoms: _26  and  _28
REMARK   10  A    between atoms: _28  and  _29
REMARK   11  A    between atoms: _28  and  _31
REMARK   12  A    between atoms: _31  and  _32
REMARK   13  A    between atoms: _38  and  _40
REMARK   14  A    between atoms: _40  and  _41
REMARK   15  A    between atoms: _40  and  _43
REMARK   16  A    between atoms: _43  and  _44
REMARK   17  A    between atoms: _44  and  _45
REMARK   18  A    between atoms: _45  and  _46
REMARK   19  A    between atoms: _55  and  _57
REMARK   20  A    between atoms: _57  and  _58
REMARK   21  A    between atoms: _57  and  _60
REMARK   22  A    between atoms: _60  and  _61
REMARK   23  A    between atoms: _63  and  _65
REMARK   24  A    between atoms: _65  and  _66
REMARK   25  A    between atoms: _65  and  _68
REMARK   26  A    between atoms: _68  and  _69
REMARK   27  A    between atoms: _72  and  _74
REMARK   28  A    between atoms: _74  and  _75
REMARK   29  A    between atoms: _74  and  _77
REMARK   30  A    between atoms: _77  and  _78
REMARK   31  A    between atoms: _78  and  _79
REMARK   32  A    between atoms: _79  and  _80
REMARK   33  A    between atoms: _80  and  _81
REMARK   34  A    between atoms: _85  and  _87
REMARK   35  A    between atoms: _87  and  _88
REMARK   36  A    between atoms: _87  and  _90
REMARK   37  A    between atoms: _90  and  _91
REMARK   38  A    between atoms: _97  and  _98
REMARK   39  A    between atoms: _103  and  _105
REMARK   40  A    between atoms: _105  and  _106
REMARK   41  A    between atoms: _105  and  _108
REMARK   42  A    between atoms: _108  and  _109
REMARK   43  A    between atoms: _112  and  _114
REMARK   44  A    between atoms: _114  and  _115
REMARK   45  A    between atoms: _114  and  _117
REMARK   46  A    between atoms: _117  and  _118
REMARK   47  A    between atoms: _118  and  _119
REMARK   48  A    between atoms: _121  and  _123
REMARK   49  A    between atoms: _123  and  _124
REMARK   50  A    between atoms: _123  and  _126
REMARK   51  A    between atoms: _126  and  _127
REMARK   52  A    between atoms: _130  and  _132
REMARK   53  A    between atoms: _132  and  _133
REMARK   54  A    between atoms: _132  and  _135
REMARK   55  A    between atoms: _135  and  _136
REMARK   56  A    between atoms: _142  and  _144
REMARK   57  A    between atoms: _144  and  _145
REMARK   58  A    between atoms: _144  and  _147
REMARK   59  A    between atoms: _147  and  _148
REMARK   60  A    between atoms: _153  and  _155
REMARK   61  A    between atoms: _155  and  _156
REMARK   62  A    between atoms: _155  and  _158
REMARK   63  A    between atoms: _158  and  _159
REMARK   64  A    between atoms: _164  and  _166
REMARK   65  A    between atoms: _166  and  _167
REMARK   66  A    between atoms: _166  and  _169
REMARK   67  A    between atoms: _169  and  _170
REMARK   68  A    between atoms: _175  and  _176
REMARK   69  A    between atoms: _178  and  _180
REMARK   70  A    between atoms: _180  and  _181
REMARK   71  A    between atoms: _180  and  _183
REMARK   72  A    between atoms: _183  and  _184
REMARK   73  A    between atoms: _189  and  _190
REMARK   74  A    between atoms: _194  and  _197
REMARK   75  A    between atoms: _197  and  _198
REMARK   76  A    between atoms: _198  and  _240
REMARK   77  A    between atoms: _206  and  _209
REMARK   78  A    between atoms: _209  and  _210
REMARK   79  A    between atoms: _218  and  _220
REMARK   80  A    between atoms: _220  and  _221
REMARK   81  A    between atoms: _220  and  _223
REMARK   82  A    between atoms: _223  and  _224
REMARK   83  A    between atoms: _227  and  _229
REMARK   84  A    between atoms: _229  and  _230
REMARK   85  A    between atoms: _229  and  _232
REMARK   86  A    between atoms: _234  and  _236
REMARK   87  A    between atoms: _236  and  _237
REMARK   88  A    between atoms: _236  and  _239
REMARK   89  A    between atoms: _239  and  _240
REMARK   90  A    between atoms: _241  and  _243
REMARK   91  A    between atoms: _243  and  _244
REMARK   92  A    between atoms: _243  and  _246
REMARK   93  A    between atoms: _246  and  _247
REMARK   94  A    between atoms: _247  and  _248
REMARK   95  A    between atoms: _251  and  _253
REMARK   96  A    between atoms: _253  and  _254
REMARK   97  A    between atoms: _253  and  _256
REMARK   98  A    between atoms: _256  and  _257
REMARK   99  A    between atoms: _262  and  _264
REMARK  100  A    between atoms: _264  and  _265
REMARK  101  A    between atoms: _264  and  _267
REMARK  102  A    between atoms: _267  and  _268
REMARK  103  A    between atoms: _271  and  _273
REMARK  104  A    between atoms: _273  and  _274
REMARK  105  A    between atoms: _273  and  _276
REMARK  106  A    between atoms: _276  and  _277
REMARK  107  A    between atoms: _282  and  _283
REMARK  108  A    between atoms: _285  and  _287
REMARK  109  A    between atoms: _287  and  _288
REMARK  110  A    between atoms: _287  and  _290
REMARK  111  A    between atoms: _290  and  _291
REMARK  112  A    between atoms: _296  and  _298
REMARK  113  A    between atoms: _298  and  _299
REMARK  114  A    between atoms: _298  and  _301
REMARK  115  A    between atoms: _301  and  _302
REMARK  116  A    between atoms: _307  and  _308
REMARK  117  A    between atoms: _310  and  _312
REMARK  118  A    between atoms: _312  and  _313
REMARK  119  A    between atoms: _312  and  _315
REMARK  120  A    between atoms: _315  and  _316
REMARK  121  A    between atoms: _319  and  _321
REMARK  122  A    between atoms: _321  and  _322
REMARK  123  A    between atoms: _321  and  _324
REMARK  124  A    between atoms: _324  and  _325
REMARK  125  A    between atoms: _328  and  _330
REMARK  126  A    between atoms: _330  and  _331
REMARK  127  A    between atoms: _334  and  _336
REMARK  128  A    between atoms: _336  and  _337
REMARK  129  A    between atoms: _336  and  _339
REMARK  130  A    between atoms: _339  and  _340
REMARK  131  A    between atoms: _346  and  _348
REMARK  132  A    between atoms: _348  and  _349
REMARK  133  A    between atoms: _348  and  _351
REMARK  134  A    between atoms: _351  and  _352
REMARK  135  A    between atoms: _352  and  _353
REMARK  136  A    between atoms: _353  and  _354
REMARK  137  A    between atoms: _354  and  _355
REMARK                            x       y       z     vdW  Elec       q    Type
REMARK                         _______ _______ _______ _____ _____    ______ ____
ROOT
ATOM      1  CB  ASN A   1     -26.297  11.042 -11.898  0.00  0.00    +0.110 C 
ENDROOT
BRANCH   1   2
ATOM      2  CG  ASN A   1     -27.277  12.113 -11.421  0.00  0.00    +0.221 C 
ATOM      3  OD1 ASN A   1     -27.833  12.048 -10.312  0.00  0.00    -0.275 OA
ATOM      4  ND2 ASN A   1     -27.522  13.099 -12.285  0.00  0.00    -0.329 N 
ATOM      5 HD21 ASN A   1     -28.199  13.849 -12.040  0.00  0.00    +0.145 HD
ATOM      6 HD22 ASN A   1     -27.036  13.118 -13.204  0.00  0.00    +0.145 HD
ENDBRANCH   1   2
BRANCH   1   7
ATOM      7  CA  ASN A   1     -25.841  10.120 -10.783  0.00  0.00    +0.142 C 
BRANCH   7   8
ATOM      8  N   ASN A   1     -24.699   9.372 -11.260  0.00  0.00    -0.239 NA
ATOM      9  H   ASN A   1     -24.807   8.737 -12.077  0.00  0.00    +0.142 HD
ENDBRANCH   7   8
BRANCH   7  10
ATOM     10  C   ASN A   1     -26.952   9.154 -10.347  0.00  0.00    +0.225 C 
ATOM     11  O   ASN A   1     -27.518   8.425 -11.187  0.00  0.00    -0.287 OA
ENDBRANCH   7  10
ENDBRANCH   1   7
TORSDOF 4
REMARK  Name = ../refined-set-2016/3qlm/3qlm_pocket.pdb
REMARK  137 active torsions:
REMARK  status: ('A' for Active; 'I' for Inactive)
REMARK    1  A    between atoms: _1  and  _3
REMARK    2  A    between atoms: _3  and  _4
REMARK    3  A    between atoms: _3  and  _6
REMARK    4  A    between atoms: _6  and  _7
REMARK    5  A    between atoms: _10  and  _12
REMARK    6  A    between atoms: _12  and  _13
REMARK    7  A    between atoms: _12  and  _15
REMARK    8  A    between atoms: _15  and  _16
REMARK    9  A    between atoms: _26  and  _28
REMARK   10  A    between atoms: _28  and  _29
REMARK   11  A    between atoms: _28  and  _31
REMARK   12  A    between atoms: _31  and  _32
REMARK   13  A    between atoms: _38  and  _40
REMARK   14  A    between atoms: _40  and  _41
REMARK   15  A    between atoms: _40  and  _43
REMARK   16  A    between atoms: _43  and  _44
REMARK   17  A    between atoms: _44  and  _45
REMARK   18  A    between atoms: _45  and  _46
REMARK   19  A    between atoms: _55  and  _57
REMARK   20  A    between atoms: _57  and  _58
REMARK   21  A    between atoms: _57  and  _60
REMARK   22  A    between atoms: _60  and  _61
REMARK   23  A    between atoms: _63  and  _65
REMARK   24  A    between atoms: _65  and  _66
REMARK   25  A    between atoms: _65  and  _68
REMARK   26  A    between atoms: _68  and  _69
REMARK   27  A    between atoms: _72  and  _74
REMARK   28  A    between atoms: _74  and  _75
REMARK   29  A    between atoms: _74  and  _77
REMARK   30  A    between atoms: _77  and  _78
REMARK   31  A    between atoms: _78  and  _79
REMARK   32  A    between atoms: _79  and  _80
REMARK   33  A    between atoms: _80  and  _81
REMARK   34  A    between atoms: _85  and  _87
REMARK   35  A    between atoms: _87  and  _88
REMARK   36  A    between atoms: _87  and  _90
REMARK   37  A    between atoms: _90  and  _91
REMARK   38  A    between atoms: _97  and  _98
REMARK   39  A    between atoms: _103  and  _105
REMARK   40  A    between atoms: _105  and  _106
REMARK   41  A    between atoms: _105  and  _108
REMARK   42  A    between atoms: _108  and  _109
REMARK   43  A    between atoms: _112  and  _114
REMARK   44  A    between atoms: _114  and  _115
REMARK   45  A    between atoms: _114  and  _117
REMARK   46  A    between atoms: _117  and  _118
REMARK   47  A    between atoms: _118  and  _119
REMARK   48  A    between atoms: _121  and  _123
REMARK   49  A    between atoms: _123  and  _124
REMARK   50  A    between atoms: _123  and  _126
REMARK   51  A    between atoms: _126  and  _127
REMARK   52  A    between atoms: _130  and  _132
REMARK   53  A    between atoms: _132  and  _133
REMARK   54  A    between atoms: _132  and  _135
REMARK   55  A    between atoms: _135  and  _136
REMARK   56  A    between atoms: _142  and  _144
REMARK   57  A    between atoms: _144  and  _145
REMARK   58  A    between atoms: _144  and  _147
REMARK   59  A    between atoms: _147  and  _148
REMARK   60  A    between atoms: _153  and  _155
REMARK   61  A    between atoms: _155  and  _156
REMARK   62  A    between atoms: _155  and  _158
REMARK   63  A    between atoms: _158  and  _159
REMARK   64  A    between atoms: _164  and  _166
REMARK   65  A    between atoms: _166  and  _167
REMARK   66  A    between atoms: _166  and  _169
REMARK   67  A    between atoms: _169  and  _170
REMARK   68  A    between atoms: _175  and  _176
REMARK   69  A    between atoms: _178  and  _180
REMARK   70  A    between atoms: _180  and  _181
REMARK   71  A    between atoms: _180  and  _183
REMARK   72  A    between atoms: _183  and  _184
REMARK   73  A    between atoms: _189  and  _190
REMARK   74  A    between atoms: _194  and  _197
REMARK   75  A    between atoms: _197  and  _198
REMARK   76  A    between atoms: _198  and  _240
REMARK   77  A    between atoms: _206  and  _209
REMARK   78  A    between atoms: _209  and  _210
REMARK   79  A    between atoms: _218  and  _220
REMARK   80  A    between atoms: _220  and  _221
REMARK   81  A    between atoms: _220  and  _223
REMARK   82  A    between atoms: _223  and  _224
REMARK   83  A    between atoms: _227  and  _229
REMARK   84  A    between atoms: _229  and  _230
REMARK   85  A    between atoms: _229  and  _232
REMARK   86  A    between atoms: _234  and  _236
REMARK   87  A    between atoms: _236  and  _237
REMARK   88  A    between atoms: _236  and  _239
REMARK   89  A    between atoms: _239  and  _240
REMARK   90  A    between atoms: _241  and  _243
REMARK   91  A    between atoms: _243  and  _244
REMARK   92  A    between atoms: _243  and  _246
REMARK   93  A    between atoms: _246  and  _247
REMARK   94  A    between atoms: _247  and  _248
REMARK   95  A    between atoms: _251  and  _253
REMARK   96  A    between atoms: _253  and  _254
REMARK   97  A    between atoms: _253  and  _256
REMARK   98  A    between atoms: _256  and  _257
REMARK   99  A    between atoms: _262  and  _264
REMARK  100  A    between atoms: _264  and  _265
REMARK  101  A    between atoms: _264  and  _267
REMARK  102  A    between atoms: _267  and  _268
REMARK  103  A    between atoms: _271  and  _273
REMARK  104  A    between atoms: _273  and  _274
REMARK  105  A    between atoms: _273  and  _276
REMARK  106  A    between atoms: _276  and  _277
REMARK  107  A    between atoms: _282  and  _283
REMARK  108  A    between atoms: _285  and  _287
REMARK  109  A    between atoms: _287  and  _288
REMARK  110  A    between atoms: _287  and  _290
REMARK  111  A    between atoms: _290  and  _291
REMARK  112  A    between atoms: _296  and  _298
REMARK  113  A    between atoms: _298  and  _299
REMARK  114  A    between atoms: _298  and  _301
REMARK  115  A    between atoms: _301  and  _302
REMARK  116  A    between atoms: _307  and  _308
REMARK  117  A    between atoms: _310  and  _312
REMARK  118  A    between atoms: _312  and  _313
REMARK  119  A    between atoms: _312  and  _315
REMARK  120  A    between atoms: _315  and  _316
REMARK  121  A    between atoms: _319  and  _321
REMARK  122  A    between atoms: _321  and  _322
REMARK  123  A    between atoms: _321  and  _324
REMARK  124  A    between atoms: _324  and  _325
REMARK  125  A    between atoms: _328  and  _330
REMARK  126  A    between atoms: _330  and  _331
REMARK  127  A    between atoms: _334  and  _336
REMARK  128  A    between atoms: _336  and  _337
REMARK  129  A    between atoms: _336  and  _339
REMARK  130  A    between atoms: _339  and  _340
REMARK  131  A    between atoms: _346  and  _348
REMARK  132  A    between atoms: _348  and  _349
REMARK  133  A    between atoms: _348  and  _351
REMARK  134  A    between atoms: _351  and  _352
REMARK  135  A    between atoms: _352  and  _353
REMARK  136  A    between atoms: _353  and  _354
REMARK  137  A    between atoms: _354  and  _355
REMARK                            x       y       z     vdW  Elec       q    Type
REMARK                         _______ _______ _______ _____ _____    ______ ____
ROOT
ATOM      1  CA  TYR A   1     -31.072  10.003 -10.255  0.00  0.00    +0.149 C 
ENDROOT
BRANCH   1   2
ATOM      2  C   TYR A   1     -31.360   9.205 -11.504  0.00  0.00    +0.239 C 
ATOM      3  O   TYR A   1     -32.497   9.193 -11.973  0.00  0.00    -0.274 OA
ATOM      4  N   THR A   2     -30.345   8.548 -12.045  0.00  0.00    -0.296 N 
ATOM      5  H   THR A   2     -29.400   8.608 -11.614  0.00  0.00    +0.150 HD
BRANCH   4   6
ATOM      6  CA  THR A   2     -30.545   7.756 -13.221  0.00  0.00    +0.164 C 
BRANCH   6   7
ATOM      7  C   THR A   2     -31.076   6.366 -12.883  0.00  0.00    +0.229 C 
ATOM      8  O   THR A   2     -31.336   5.561 -13.771  0.00  0.00    -0.286 OA
ENDBRANCH   6   7
BRANCH   6   9
ATOM      9  CB  THR A   2     -29.207   7.545 -13.979  0.00  0.00    +0.136 C 
ATOM     10  CG2 THR A   2     -28.604   8.864 -14.509  0.00  0.00    +0.034 C 
BRANCH   9  11
ATOM     11  OG1 THR A   2     -28.276   6.887 -13.112  0.00  0.00    -0.382 OA
ATOM     12  HG1 THR A   2     -28.121   7.447 -12.311  0.00  0.00    +0.210 HD
ENDBRANCH   9  11
ENDBRANCH   6   9
ENDBRANCH   4   6
ENDBRANCH   1   2
BRANCH   1  13
ATOM     13  N   TYR A   1     -29.807   9.631  -9.612  0.00  0.00    -0.238 NA
ATOM     14  H   TYR A   1     -29.030  10.322  -9.595  0.00  0.00    +0.142 HD
ENDBRANCH   1  13
BRANCH   1  15
ATOM     15  CB  TYR A   1     -31.132  11.468 -10.620  0.00  0.00    +0.053 C 
BRANCH  15  16
ATOM     16  CG  TYR A   1     -31.617  12.372  -9.516  0.00  0.00    -0.020 A 
ATOM     17  CD2 TYR A   1     -32.866  12.161  -8.883  0.00  0.00    -0.001 A 
ATOM     18  CE2 TYR A   1     -33.324  13.033  -7.852  0.00  0.00    +0.036 A 
ATOM     19  CZ  TYR A   1     -32.523  14.106  -7.468  0.00  0.00    +0.134 A 
ATOM     20  CE1 TYR A   1     -31.283  14.317  -8.066  0.00  0.00    +0.036 A 
ATOM     21  CD1 TYR A   1     -30.842  13.469  -9.102  0.00  0.00    -0.001 A 
BRANCH  19  22
ATOM     22  OH  TYR A   1     -32.933  14.971  -6.460  0.00  0.00    -0.506 OA
ATOM     23  HH  TYR A   1     -33.827  14.697  -6.135  0.00  0.00    +0.292 HD
ENDBRANCH  19  22
ENDBRANCH  15  16
ENDBRANCH   1  15
TORSDOF 9
REMARK  Name = ../refined-set-2016/3qlm/3qlm_pocket.pdb
REMARK  137 active torsions:
REMARK  status: ('A' for Active; 'I' for Inactive)
REMARK    1  A    between atoms: _1  and  _3
REMARK    2  A    between atoms: _3  and  _4
REMARK    3  A    between atoms: _3  and  _6
REMARK    4  A    between atoms: _6  and  _7
REMARK    5  A    between atoms: _10  and  _12
REMARK    6  A    between atoms: _12  and  _13
REMARK    7  A    between atoms: _12  and  _15
REMARK    8  A    between atoms: _15  and  _16
REMARK    9  A    between atoms: _26  and  _28
REMARK   10  A    between atoms: _28  and  _29
REMARK   11  A    between atoms: _28  and  _31
REMARK   12  A    between atoms: _31  and  _32
REMARK   13  A    between atoms: _38  and  _40
REMARK   14  A    between atoms: _40  and  _41
REMARK   15  A    between atoms: _40  and  _43
REMARK   16  A    between atoms: _43  and  _44
REMARK   17  A    between atoms: _44  and  _45
REMARK   18  A    between atoms: _45  and  _46
REMARK   19  A    between atoms: _55  and  _57
REMARK   20  A    between atoms: _57  and  _58
REMARK   21  A    between atoms: _57  and  _60
REMARK   22  A    between atoms: _60  and  _61
REMARK   23  A    between atoms: _63  and  _65
REMARK   24  A    between atoms: _65  and  _66
REMARK   25  A    between atoms: _65  and  _68
REMARK   26  A    between atoms: _68  and  _69
REMARK   27  A    between atoms: _72  and  _74
REMARK   28  A    between atoms: _74  and  _75
REMARK   29  A    between atoms: _74  and  _77
REMARK   30  A    between atoms: _77  and  _78
REMARK   31  A    between atoms: _78  and  _79
REMARK   32  A    between atoms: _79  and  _80
REMARK   33  A    between atoms: _80  and  _81
REMARK   34  A    between atoms: _85  and  _87
REMARK   35  A    between atoms: _87  and  _88
REMARK   36  A    between atoms: _87  and  _90
REMARK   37  A    between atoms: _90  and  _91
REMARK   38  A    between atoms: _97  and  _98
REMARK   39  A    between atoms: _103  and  _105
REMARK   40  A    between atoms: _105  and  _106
REMARK   41  A    between atoms: _105  and  _108
REMARK   42  A    between atoms: _108  and  _109
REMARK   43  A    between atoms: _112  and  _114
REMARK   44  A    between atoms: _114  and  _115
REMARK   45  A    between atoms: _114  and  _117
REMARK   46  A    between atoms: _117  and  _118
REMARK   47  A    between atoms: _118  and  _119
REMARK   48  A    between atoms: _121  and  _123
REMARK   49  A    between atoms: _123  and  _124
REMARK   50  A    between atoms: _123  and  _126
REMARK   51  A    between atoms: _126  and  _127
REMARK   52  A    between atoms: _130  and  _132
REMARK   53  A    between atoms: _132  and  _133
REMARK   54  A    between atoms: _132  and  _135
REMARK   55  A    between atoms: _135  and  _136
REMARK   56  A    between atoms: _142  and  _144
REMARK   57  A    between atoms: _144  and  _145
REMARK   58  A    between atoms: _144  and  _147
REMARK   59  A    between atoms: _147  and  _148
REMARK   60  A    between atoms: _153  and  _155
REMARK   61  A    between atoms: _155  and  _156
REMARK   62  A    between atoms: _155  and  _158
REMARK   63  A    between atoms: _158  and  _159
REMARK   64  A    between atoms: _164  and  _166
REMARK   65  A    between atoms: _166  and  _167
REMARK   66  A    between atoms: _166  and  _169
REMARK   67  A    between atoms: _169  and  _170
REMARK   68  A    between atoms: _175  and  _176
REMARK   69  A    between atoms: _178  and  _180
REMARK   70  A    between atoms: _180  and  _181
REMARK   71  A    between atoms: _180  and  _183
REMARK   72  A    between atoms: _183  and  _184
REMARK   73  A    between atoms: _189  and  _190
REMARK   74  A    between atoms: _194  and  _197
REMARK   75  A    between atoms: _197  and  _198
REMARK   76  A    between atoms: _198  and  _240
REMARK   77  A    between atoms: _206  and  _209
REMARK   78  A    between atoms: _209  and  _210
REMARK   79  A    between atoms: _218  and  _220
REMARK   80  A    between atoms: _220  and  _221
REMARK   81  A    between atoms: _220  and  _223
REMARK   82  A    between atoms: _223  and  _224
REMARK   83  A    between atoms: _227  and  _229
REMARK   84  A    between atoms: _229  and  _230
REMARK   85  A    between atoms: _229  and  _232
REMARK   86  A    between atoms: _234  and  _236
REMARK   87  A    between atoms: _236  and  _237
REMARK   88  A    between atoms: _236  and  _239
REMARK   89  A    between atoms: _239  and  _240
REMARK   90  A    between atoms: _241  and  _243
REMARK   91  A    between atoms: _243  and  _244
REMARK   92  A    between atoms: _243  and  _246
REMARK   93  A    between atoms: _246  and  _247
REMARK   94  A    between atoms: _247  and  _248
REMARK   95  A    between atoms: _251  and  _253
REMARK   96  A    between atoms: _253  and  _254
REMARK   97  A    between atoms: _253  and  _256
REMARK   98  A    between atoms: _256  and  _257
REMARK   99  A    between atoms: _262  and  _264
REMARK  100  A    between atoms: _264  and  _265
REMARK  101  A    between atoms: _264  and  _267
REMARK  102  A    between atoms: _267  and  _268
REMARK  103  A    between atoms: _271  and  _273
REMARK  104  A    between atoms: _273  and  _274
REMARK  105  A    between atoms: _273  and  _276
REMARK  106  A    between atoms: _276  and  _277
REMARK  107  A    between atoms: _282  and  _283
REMARK  108  A    between atoms: _285  and  _287
REMARK  109  A    between atoms: _287  and  _288
REMARK  110  A    between atoms: _287  and  _290
REMARK  111  A    between atoms: _290  and  _291
REMARK  112  A    between atoms: _296  and  _298
REMARK  113  A    between atoms: _298  and  _299
REMARK  114  A    between atoms: _298  and  _301
REMARK  115  A    between atoms: _301  and  _302
REMARK  116  A    between atoms: _307  and  _308
REMARK  117  A    between atoms: _310  and  _312
REMARK  118  A    between atoms: _312  and  _313
REMARK  119  A    between atoms: _312  and  _315
REMARK  120  A    between atoms: _315  and  _316
REMARK  121  A    between atoms: _319  and  _321
REMARK  122  A    between atoms: _321  and  _322
REMARK  123  A    between atoms: _321  and  _324
REMARK  124  A    between atoms: _324  and  _325
REMARK  125  A    between atoms: _328  and  _330
REMARK  126  A    between atoms: _330  and  _331
REMARK  127  A    between atoms: _334  and  _336
REMARK  128  A    between atoms: _336  and  _337
REMARK  129  A    between atoms: _336  and  _339
REMARK  130  A    between atoms: _339  and  _340
REMARK  131  A    between atoms: _346  and  _348
REMARK  132  A    between atoms: _348  and  _349
REMARK  133  A    between atoms: _348  and  _351
REMARK  134  A    between atoms: _351  and  _352
REMARK  135  A    between atoms: _352  and  _353
REMARK  136  A    between atoms: _353  and  _354
REMARK  137  A    between atoms: _354  and  _355
REMARK                            x       y       z     vdW  Elec       q    Type
REMARK                         _______ _______ _______ _____ _____    ______ ____
ROOT
ATOM      1  CA  ASP A   1     -36.664   9.549  -2.163  0.00  0.00    +0.144 C 
ENDROOT
BRANCH   1   2
ATOM      2  N   ASP A   1     -35.615   8.788  -1.499  0.00  0.00    -0.239 NA
ATOM      3  H   ASP A   1     -35.313   7.872  -1.889  0.00  0.00    +0.142 HD
ENDBRANCH   1   2
BRANCH   1   4
ATOM      4  C   ASP A   1     -37.911   9.487  -1.283  0.00  0.00    +0.225 C 
ATOM      5  O   ASP A   1     -38.536  10.508  -0.975  0.00  0.00    -0.287 OA
ENDBRANCH   1   4
BRANCH   1   6
ATOM      6  CB  ASP A   1     -36.951   9.031  -3.592  0.00  0.00    +0.139 C 
BRANCH   6   7
ATOM      7  CG  ASP A   1     -35.790   9.222  -4.544  0.00  0.00    +0.367 C 
ATOM      8  OD2 ASP A   1     -34.791   9.919  -4.215  0.00  0.00    -0.246 OA
ATOM      9  OD1 ASP A   1     -35.870   8.633  -5.652  0.00  0.00    -0.246 OA
ENDBRANCH   6   7
ENDBRANCH   1   6
TORSDOF 4
REMARK  Name = ../refined-set-2016/3qlm/3qlm_pocket.pdb
REMARK  137 active torsions:
REMARK  status: ('A' for Active; 'I' for Inactive)
REMARK    1  A    between atoms: _1  and  _3
REMARK    2  A    between atoms: _3  and  _4
REMARK    3  A    between atoms: _3  and  _6
REMARK    4  A    between atoms: _6  and  _7
REMARK    5  A    between atoms: _10  and  _12
REMARK    6  A    between atoms: _12  and  _13
REMARK    7  A    between atoms: _12  and  _15
REMARK    8  A    between atoms: _15  and  _16
REMARK    9  A    between atoms: _26  and  _28
REMARK   10  A    between atoms: _28  and  _29
REMARK   11  A    between atoms: _28  and  _31
REMARK   12  A    between atoms: _31  and  _32
REMARK   13  A    between atoms: _38  and  _40
REMARK   14  A    between atoms: _40  and  _41
REMARK   15  A    between atoms: _40  and  _43
REMARK   16  A    between atoms: _43  and  _44
REMARK   17  A    between atoms: _44  and  _45
REMARK   18  A    between atoms: _45  and  _46
REMARK   19  A    between atoms: _55  and  _57
REMARK   20  A    between atoms: _57  and  _58
REMARK   21  A    between atoms: _57  and  _60
REMARK   22  A    between atoms: _60  and  _61
REMARK   23  A    between atoms: _63  and  _65
REMARK   24  A    between atoms: _65  and  _66
REMARK   25  A    between atoms: _65  and  _68
REMARK   26  A    between atoms: _68  and  _69
REMARK   27  A    between atoms: _72  and  _74
REMARK   28  A    between atoms: _74  and  _75
REMARK   29  A    between atoms: _74  and  _77
REMARK   30  A    between atoms: _77  and  _78
REMARK   31  A    between atoms: _78  and  _79
REMARK   32  A    between atoms: _79  and  _80
REMARK   33  A    between atoms: _80  and  _81
REMARK   34  A    between atoms: _85  and  _87
REMARK   35  A    between atoms: _87  and  _88
REMARK   36  A    between atoms: _87  and  _90
REMARK   37  A    between atoms: _90  and  _91
REMARK   38  A    between atoms: _97  and  _98
REMARK   39  A    between atoms: _103  and  _105
REMARK   40  A    between atoms: _105  and  _106
REMARK   41  A    between atoms: _105  and  _108
REMARK   42  A    between atoms: _108  and  _109
REMARK   43  A    between atoms: _112  and  _114
REMARK   44  A    between atoms: _114  and  _115
REMARK   45  A    between atoms: _114  and  _117
REMARK   46  A    between atoms: _117  and  _118
REMARK   47  A    between atoms: _118  and  _119
REMARK   48  A    between atoms: _121  and  _123
REMARK   49  A    between atoms: _123  and  _124
REMARK   50  A    between atoms: _123  and  _126
REMARK   51  A    between atoms: _126  and  _127
REMARK   52  A    between atoms: _130  and  _132
REMARK   53  A    between atoms: _132  and  _133
REMARK   54  A    between atoms: _132  and  _135
REMARK   55  A    between atoms: _135  and  _136
REMARK   56  A    between atoms: _142  and  _144
REMARK   57  A    between atoms: _144  and  _145
REMARK   58  A    between atoms: _144  and  _147
REMARK   59  A    between atoms: _147  and  _148
REMARK   60  A    between atoms: _153  and  _155
REMARK   61  A    between atoms: _155  and  _156
REMARK   62  A    between atoms: _155  and  _158
REMARK   63  A    between atoms: _158  and  _159
REMARK   64  A    between atoms: _164  and  _166
REMARK   65  A    between atoms: _166  and  _167
REMARK   66  A    between atoms: _166  and  _169
REMARK   67  A    between atoms: _169  and  _170
REMARK   68  A    between atoms: _175  and  _176
REMARK   69  A    between atoms: _178  and  _180
REMARK   70  A    between atoms: _180  and  _181
REMARK   71  A    between atoms: _180  and  _183
REMARK   72  A    between atoms: _183  and  _184
REMARK   73  A    between atoms: _189  and  _190
REMARK   74  A    between atoms: _194  and  _197
REMARK   75  A    between atoms: _197  and  _198
REMARK   76  A    between atoms: _198  and  _240
REMARK   77  A    between atoms: _206  and  _209
REMARK   78  A    between atoms: _209  and  _210
REMARK   79  A    between atoms: _218  and  _220
REMARK   80  A    between atoms: _220  and  _221
REMARK   81  A    between atoms: _220  and  _223
REMARK   82  A    between atoms: _223  and  _224
REMARK   83  A    between atoms: _227  and  _229
REMARK   84  A    between atoms: _229  and  _230
REMARK   85  A    between atoms: _229  and  _232
REMARK   86  A    between atoms: _234  and  _236
REMARK   87  A    between atoms: _236  and  _237
REMARK   88  A    between atoms: _236  and  _239
REMARK   89  A    between atoms: _239  and  _240
REMARK   90  A    between atoms: _241  and  _243
REMARK   91  A    between atoms: _243  and  _244
REMARK   92  A    between atoms: _243  and  _246
REMARK   93  A    between atoms: _246  and  _247
REMARK   94  A    between atoms: _247  and  _248
REMARK   95  A    between atoms: _251  and  _253
REMARK   96  A    between atoms: _253  and  _254
REMARK   97  A    between atoms: _253  and  _256
REMARK   98  A    between atoms: _256  and  _257
REMARK   99  A    between atoms: _262  and  _264
REMARK  100  A    between atoms: _264  and  _265
REMARK  101  A    between atoms: _264  and  _267
REMARK  102  A    between atoms: _267  and  _268
REMARK  103  A    between atoms: _271  and  _273
REMARK  104  A    between atoms: _273  and  _274
REMARK  105  A    between atoms: _273  and  _276
REMARK  106  A    between atoms: _276  and  _277
REMARK  107  A    between atoms: _282  and  _283
REMARK  108  A    between atoms: _285  and  _287
REMARK  109  A    between atoms: _287  and  _288
REMARK  110  A    between atoms: _287  and  _290
REMARK  111  A    between atoms: _290  and  _291
REMARK  112  A    between atoms: _296  and  _298
REMARK  113  A    between atoms: _298  and  _299
REMARK  114  A    between atoms: _298  and  _301
REMARK  115  A    between atoms: _301  and  _302
REMARK  116  A    between atoms: _307  and  _308
REMARK  117  A    between atoms: _310  and  _312
REMARK  118  A    between atoms: _312  and  _313
REMARK  119  A    between atoms: _312  and  _315
REMARK  120  A    between atoms: _315  and  _316
REMARK  121  A    between atoms: _319  and  _321
REMARK  122  A    between atoms: _321  and  _322
REMARK  123  A    between atoms: _321  and  _324
REMARK  124  A    between atoms: _324  and  _325
REMARK  125  A    between atoms: _328  and  _330
REMARK  126  A    between atoms: _330  and  _331
REMARK  127  A    between atoms: _334  and  _336
REMARK  128  A    between atoms: _336  and  _337
REMARK  129  A    between atoms: _336  and  _339
REMARK  130  A    between atoms: _339  and  _340
REMARK  131  A    between atoms: _346  and  _348
REMARK  132  A    between atoms: _348  and  _349
REMARK  133  A    between atoms: _348  and  _351
REMARK  134  A    between atoms: _351  and  _352
REMARK  135  A    between atoms: _352  and  _353
REMARK  136  A    between atoms: _353  and  _354
REMARK  137  A    between atoms: _354  and  _355
REMARK                            x       y       z     vdW  Elec       q    Type
REMARK                         _______ _______ _______ _____ _____    ______ ____
ROOT
ATOM      1  CA  ALA A   1     -37.993  13.003   1.252  0.00  0.00    +0.133 C 
ATOM      2  CB  ALA A   1     -36.961  13.378   0.255  0.00  0.00    +0.027 C 
ENDROOT
BRANCH   1   3
ATOM      3  N   ALA A   1     -37.861  11.630   1.647  0.00  0.00    -0.239 NA
ATOM      4  H   ALA A   1     -37.485  10.923   0.983  0.00  0.00    +0.142 HD
ENDBRANCH   1   3
BRANCH   1   5
ATOM      5  C   ALA A   1     -39.395  13.393   0.803  0.00  0.00    +0.224 C 
ATOM      6  O   ALA A   1     -39.838  14.504   1.103  0.00  0.00    -0.287 OA
ENDBRANCH   1   5
TORSDOF 2
REMARK  Name = ../refined-set-2016/3qlm/3qlm_pocket.pdb
REMARK  137 active torsions:
REMARK  status: ('A' for Active; 'I' for Inactive)
REMARK    1  A    between atoms: _1  and  _3
REMARK    2  A    between atoms: _3  and  _4
REMARK    3  A    between atoms: _3  and  _6
REMARK    4  A    between atoms: _6  and  _7
REMARK    5  A    between atoms: _10  and  _12
REMARK    6  A    between atoms: _12  and  _13
REMARK    7  A    between atoms: _12  and  _15
REMARK    8  A    between atoms: _15  and  _16
REMARK    9  A    between atoms: _26  and  _28
REMARK   10  A    between atoms: _28  and  _29
REMARK   11  A    between atoms: _28  and  _31
REMARK   12  A    between atoms: _31  and  _32
REMARK   13  A    between atoms: _38  and  _40
REMARK   14  A    between atoms: _40  and  _41
REMARK   15  A    between atoms: _40  and  _43
REMARK   16  A    between atoms: _43  and  _44
REMARK   17  A    between atoms: _44  and  _45
REMARK   18  A    between atoms: _45  and  _46
REMARK   19  A    between atoms: _55  and  _57
REMARK   20  A    between atoms: _57  and  _58
REMARK   21  A    between atoms: _57  and  _60
REMARK   22  A    between atoms: _60  and  _61
REMARK   23  A    between atoms: _63  and  _65
REMARK   24  A    between atoms: _65  and  _66
REMARK   25  A    between atoms: _65  and  _68
REMARK   26  A    between atoms: _68  and  _69
REMARK   27  A    between atoms: _72  and  _74
REMARK   28  A    between atoms: _74  and  _75
REMARK   29  A    between atoms: _74  and  _77
REMARK   30  A    between atoms: _77  and  _78
REMARK   31  A    between atoms: _78  and  _79
REMARK   32  A    between atoms: _79  and  _80
REMARK   33  A    between atoms: _80  and  _81
REMARK   34  A    between atoms: _85  and  _87
REMARK   35  A    between atoms: _87  and  _88
REMARK   36  A    between atoms: _87  and  _90
REMARK   37  A    between atoms: _90  and  _91
REMARK   38  A    between atoms: _97  and  _98
REMARK   39  A    between atoms: _103  and  _105
REMARK   40  A    between atoms: _105  and  _106
REMARK   41  A    between atoms: _105  and  _108
REMARK   42  A    between atoms: _108  and  _109
REMARK   43  A    between atoms: _112  and  _114
REMARK   44  A    between atoms: _114  and  _115
REMARK   45  A    between atoms: _114  and  _117
REMARK   46  A    between atoms: _117  and  _118
REMARK   47  A    between atoms: _118  and  _119
REMARK   48  A    between atoms: _121  and  _123
REMARK   49  A    between atoms: _123  and  _124
REMARK   50  A    between atoms: _123  and  _126
REMARK   51  A    between atoms: _126  and  _127
REMARK   52  A    between atoms: _130  and  _132
REMARK   53  A    between atoms: _132  and  _133
REMARK   54  A    between atoms: _132  and  _135
REMARK   55  A    between atoms: _135  and  _136
REMARK   56  A    between atoms: _142  and  _144
REMARK   57  A    between atoms: _144  and  _145
REMARK   58  A    between atoms: _144  and  _147
REMARK   59  A    between atoms: _147  and  _148
REMARK   60  A    between atoms: _153  and  _155
REMARK   61  A    between atoms: _155  and  _156
REMARK   62  A    between atoms: _155  and  _158
REMARK   63  A    between atoms: _158  and  _159
REMARK   64  A    between atoms: _164  and  _166
REMARK   65  A    between atoms: _166  and  _167
REMARK   66  A    between atoms: _166  and  _169
REMARK   67  A    between atoms: _169  and  _170
REMARK   68  A    between atoms: _175  and  _176
REMARK   69  A    between atoms: _178  and  _180
REMARK   70  A    between atoms: _180  and  _181
REMARK   71  A    between atoms: _180  and  _183
REMARK   72  A    between atoms: _183  and  _184
REMARK   73  A    between atoms: _189  and  _190
REMARK   74  A    between atoms: _194  and  _197
REMARK   75  A    between atoms: _197  and  _198
REMARK   76  A    between atoms: _198  and  _240
REMARK   77  A    between atoms: _206  and  _209
REMARK   78  A    between atoms: _209  and  _210
REMARK   79  A    between atoms: _218  and  _220
REMARK   80  A    between atoms: _220  and  _221
REMARK   81  A    between atoms: _220  and  _223
REMARK   82  A    between atoms: _223  and  _224
REMARK   83  A    between atoms: _227  and  _229
REMARK   84  A    between atoms: _229  and  _230
REMARK   85  A    between atoms: _229  and  _232
REMARK   86  A    between atoms: _234  and  _236
REMARK   87  A    between atoms: _236  and  _237
REMARK   88  A    between atoms: _236  and  _239
REMARK   89  A    between atoms: _239  and  _240
REMARK   90  A    between atoms: _241  and  _243
REMARK   91  A    between atoms: _243  and  _244
REMARK   92  A    between atoms: _243  and  _246
REMARK   93  A    between atoms: _246  and  _247
REMARK   94  A    between atoms: _247  and  _248
REMARK   95  A    between atoms: _251  and  _253
REMARK   96  A    between atoms: _253  and  _254
REMARK   97  A    between atoms: _253  and  _256
REMARK   98  A    between atoms: _256  and  _257
REMARK   99  A    between atoms: _262  and  _264
REMARK  100  A    between atoms: _264  and  _265
REMARK  101  A    between atoms: _264  and  _267
REMARK  102  A    between atoms: _267  and  _268
REMARK  103  A    between atoms: _271  and  _273
REMARK  104  A    between atoms: _273  and  _274
REMARK  105  A    between atoms: _273  and  _276
REMARK  106  A    between atoms: _276  and  _277
REMARK  107  A    between atoms: _282  and  _283
REMARK  108  A    between atoms: _285  and  _287
REMARK  109  A    between atoms: _287  and  _288
REMARK  110  A    between atoms: _287  and  _290
REMARK  111  A    between atoms: _290  and  _291
REMARK  112  A    between atoms: _296  and  _298
REMARK  113  A    between atoms: _298  and  _299
REMARK  114  A    between atoms: _298  and  _301
REMARK  115  A    between atoms: _301  and  _302
REMARK  116  A    between atoms: _307  and  _308
REMARK  117  A    between atoms: _310  and  _312
REMARK  118  A    between atoms: _312  and  _313
REMARK  119  A    between atoms: _312  and  _315
REMARK  120  A    between atoms: _315  and  _316
REMARK  121  A    between atoms: _319  and  _321
REMARK  122  A    between atoms: _321  and  _322
REMARK  123  A    between atoms: _321  and  _324
REMARK  124  A    between atoms: _324  and  _325
REMARK  125  A    between atoms: _328  and  _330
REMARK  126  A    between atoms: _330  and  _331
REMARK  127  A    between atoms: _334  and  _336
REMARK  128  A    between atoms: _336  and  _337
REMARK  129  A    between atoms: _336  and  _339
REMARK  130  A    between atoms: _339  and  _340
REMARK  131  A    between atoms: _346  and  _348
REMARK  132  A    between atoms: _348  and  _349
REMARK  133  A    between atoms: _348  and  _351
REMARK  134  A    between atoms: _351  and  _352
REMARK  135  A    between atoms: _352  and  _353
REMARK  136  A    between atoms: _353  and  _354
REMARK  137  A    between atoms: _354  and  _355
REMARK                            x       y       z     vdW  Elec       q    Type
REMARK                         _______ _______ _______ _____ _____    ______ ____
ROOT
ATOM      1  CB  PHE A   1     -41.879  17.375   0.702  0.00  0.00    +0.051 C 
ENDROOT
BRANCH   1   2
ATOM      2  CG  PHE A   1     -40.565  17.453  -0.020  0.00  0.00    -0.020 A 
ATOM      3  CD2 PHE A   1     -39.353  17.546   0.659  0.00  0.00    -0.004 A 
ATOM      4  CE2 PHE A   1     -38.152  17.568  -0.063  0.00  0.00    -0.000 A 
ATOM      5  CZ  PHE A   1     -38.188  17.494  -1.459  0.00  0.00    -0.000 A 
ATOM      6  CE1 PHE A   1     -39.415  17.402  -2.123  0.00  0.00    -0.000 A 
ATOM      7  CD1 PHE A   1     -40.566  17.373  -1.428  0.00  0.00    -0.004 A 
ENDBRANCH   1   2
BRANCH   1   8
ATOM      8  CA  PHE A   1     -41.804  17.427   2.230  0.00  0.00    +0.137 C 
BRANCH   8   9
ATOM      9  N   PHE A   1     -41.165  16.256   2.847  0.00  0.00    -0.239 NA
ATOM     10  H   PHE A   1     -40.647  15.557   2.277  0.00  0.00    +0.142 HD
ENDBRANCH   8   9
BRANCH   8  11
ATOM     11  C   PHE A   1     -43.251  17.529   2.688  0.00  0.00    +0.224 C 
ATOM     12  O   PHE A   1     -43.802  18.621   2.764  0.00  0.00    -0.287 OA
ENDBRANCH   8  11
ENDBRANCH   1   8
TORSDOF 4
REMARK  Name = ../refined-set-2016/3qlm/3qlm_pocket.pdb
REMARK  137 active torsions:
REMARK  status: ('A' for Active; 'I' for Inactive)
REMARK    1  A    between atoms: _1  and  _3
REMARK    2  A    between atoms: _3  and  _4
REMARK    3  A    between atoms: _3  and  _6
REMARK    4  A    between atoms: _6  and  _7
REMARK    5  A    between atoms: _10  and  _12
REMARK    6  A    between atoms: _12  and  _13
REMARK    7  A    between atoms: _12  and  _15
REMARK    8  A    between atoms: _15  and  _16
REMARK    9  A    between atoms: _26  and  _28
REMARK   10  A    between atoms: _28  and  _29
REMARK   11  A    between atoms: _28  and  _31
REMARK   12  A    between atoms: _31  and  _32
REMARK   13  A    between atoms: _38  and  _40
REMARK   14  A    between atoms: _40  and  _41
REMARK   15  A    between atoms: _40  and  _43
REMARK   16  A    between atoms: _43  and  _44
REMARK   17  A    between atoms: _44  and  _45
REMARK   18  A    between atoms: _45  and  _46
REMARK   19  A    between atoms: _55  and  _57
REMARK   20  A    between atoms: _57  and  _58
REMARK   21  A    between atoms: _57  and  _60
REMARK   22  A    between atoms: _60  and  _61
REMARK   23  A    between atoms: _63  and  _65
REMARK   24  A    between atoms: _65  and  _66
REMARK   25  A    between atoms: _65  and  _68
REMARK   26  A    between atoms: _68  and  _69
REMARK   27  A    between atoms: _72  and  _74
REMARK   28  A    between atoms: _74  and  _75
REMARK   29  A    between atoms: _74  and  _77
REMARK   30  A    between atoms: _77  and  _78
REMARK   31  A    between atoms: _78  and  _79
REMARK   32  A    between atoms: _79  and  _80
REMARK   33  A    between atoms: _80  and  _81
REMARK   34  A    between atoms: _85  and  _87
REMARK   35  A    between atoms: _87  and  _88
REMARK   36  A    between atoms: _87  and  _90
REMARK   37  A    between atoms: _90  and  _91
REMARK   38  A    between atoms: _97  and  _98
REMARK   39  A    between atoms: _103  and  _105
REMARK   40  A    between atoms: _105  and  _106
REMARK   41  A    between atoms: _105  and  _108
REMARK   42  A    between atoms: _108  and  _109
REMARK   43  A    between atoms: _112  and  _114
REMARK   44  A    between atoms: _114  and  _115
REMARK   45  A    between atoms: _114  and  _117
REMARK   46  A    between atoms: _117  and  _118
REMARK   47  A    between atoms: _118  and  _119
REMARK   48  A    between atoms: _121  and  _123
REMARK   49  A    between atoms: _123  and  _124
REMARK   50  A    between atoms: _123  and  _126
REMARK   51  A    between atoms: _126  and  _127
REMARK   52  A    between atoms: _130  and  _132
REMARK   53  A    between atoms: _132  and  _133
REMARK   54  A    between atoms: _132  and  _135
REMARK   55  A    between atoms: _135  and  _136
REMARK   56  A    between atoms: _142  and  _144
REMARK   57  A    between atoms: _144  and  _145
REMARK   58  A    between atoms: _144  and  _147
REMARK   59  A    between atoms: _147  and  _148
REMARK   60  A    between atoms: _153  and  _155
REMARK   61  A    between atoms: _155  and  _156
REMARK   62  A    between atoms: _155  and  _158
REMARK   63  A    between atoms: _158  and  _159
REMARK   64  A    between atoms: _164  and  _166
REMARK   65  A    between atoms: _166  and  _167
REMARK   66  A    between atoms: _166  and  _169
REMARK   67  A    between atoms: _169  and  _170
REMARK   68  A    between atoms: _175  and  _176
REMARK   69  A    between atoms: _178  and  _180
REMARK   70  A    between atoms: _180  and  _181
REMARK   71  A    between atoms: _180  and  _183
REMARK   72  A    between atoms: _183  and  _184
REMARK   73  A    between atoms: _189  and  _190
REMARK   74  A    between atoms: _194  and  _197
REMARK   75  A    between atoms: _197  and  _198
REMARK   76  A    between atoms: _198  and  _240
REMARK   77  A    between atoms: _206  and  _209
REMARK   78  A    between atoms: _209  and  _210
REMARK   79  A    between atoms: _218  and  _220
REMARK   80  A    between atoms: _220  and  _221
REMARK   81  A    between atoms: _220  and  _223
REMARK   82  A    between atoms: _223  and  _224
REMARK   83  A    between atoms: _227  and  _229
REMARK   84  A    between atoms: _229  and  _230
REMARK   85  A    between atoms: _229  and  _232
REMARK   86  A    between atoms: _234  and  _236
REMARK   87  A    between atoms: _236  and  _237
REMARK   88  A    between atoms: _236  and  _239
REMARK   89  A    between atoms: _239  and  _240
REMARK   90  A    between atoms: _241  and  _243
REMARK   91  A    between atoms: _243  and  _244
REMARK   92  A    between atoms: _243  and  _246
REMARK   93  A    between atoms: _246  and  _247
REMARK   94  A    between atoms: _247  and  _248
REMARK   95  A    between atoms: _251  and  _253
REMARK   96  A    between atoms: _253  and  _254
REMARK   97  A    between atoms: _253  and  _256
REMARK   98  A    between atoms: _256  and  _257
REMARK   99  A    between atoms: _262  and  _264
REMARK  100  A    between atoms: _264  and  _265
REMARK  101  A    between atoms: _264  and  _267
REMARK  102  A    between atoms: _267  and  _268
REMARK  103  A    between atoms: _271  and  _273
REMARK  104  A    between atoms: _273  and  _274
REMARK  105  A    between atoms: _273  and  _276
REMARK  106  A    between atoms: _276  and  _277
REMARK  107  A    between atoms: _282  and  _283
REMARK  108  A    between atoms: _285  and  _287
REMARK  109  A    between atoms: _287  and  _288
REMARK  110  A    between atoms: _287  and  _290
REMARK  111  A    between atoms: _290  and  _291
REMARK  112  A    between atoms: _296  and  _298
REMARK  113  A    between atoms: _298  and  _299
REMARK  114  A    between atoms: _298  and  _301
REMARK  115  A    between atoms: _301  and  _302
REMARK  116  A    between atoms: _307  and  _308
REMARK  117  A    between atoms: _310  and  _312
REMARK  118  A    between atoms: _312  and  _313
REMARK  119  A    between atoms: _312  and  _315
REMARK  120  A    between atoms: _315  and  _316
REMARK  121  A    between atoms: _319  and  _321
REMARK  122  A    between atoms: _321  and  _322
REMARK  123  A    between atoms: _321  and  _324
REMARK  124  A    between atoms: _324  and  _325
REMARK  125  A    between atoms: _328  and  _330
REMARK  126  A    between atoms: _330  and  _331
REMARK  127  A    between atoms: _334  and  _336
REMARK  128  A    between atoms: _336  and  _337
REMARK  129  A    between atoms: _336  and  _339
REMARK  130  A    between atoms: _339  and  _340
REMARK  131  A    between atoms: _346  and  _348
REMARK  132  A    between atoms: _348  and  _349
REMARK  133  A    between atoms: _348  and  _351
REMARK  134  A    between atoms: _351  and  _352
REMARK  135  A    between atoms: _352  and  _353
REMARK  136  A    between atoms: _353  and  _354
REMARK  137  A    between atoms: _354  and  _355
REMARK                            x       y       z     vdW  Elec       q    Type
REMARK                         _______ _______ _______ _____ _____    ______ ____
ROOT
ATOM      1  CG  LYS A   1     -40.705  29.365  -5.195  0.00  0.00    -0.000 C 
ENDROOT
BRANCH   1   2
ATOM      2  CB  LYS A   1     -40.567  29.528  -3.659  0.00  0.00    +0.025 C 
BRANCH   2   3
ATOM      3  CA  LYS A   1     -39.149  29.781  -3.111  0.00  0.00    +0.133 C 
BRANCH   3   4
ATOM      4  N   LYS A   1     -39.231  30.287  -1.761  0.00  0.00    -0.239 NA
ATOM      5  H   LYS A   1     -40.140  30.661  -1.422  0.00  0.00    +0.142 HD
ENDBRANCH   3   4
BRANCH   3   6
ATOM      6  C   LYS A   1     -38.442  30.854  -3.905  0.00  0.00    +0.224 C 
ATOM      7  O   LYS A   1     -38.790  32.027  -3.812  0.00  0.00    -0.287 OA
ENDBRANCH   3   6
ENDBRANCH   2   3
ENDBRANCH   1   2
BRANCH   1   8
ATOM      8  CD  LYS A   1     -40.433  27.920  -5.715  0.00  0.00    -0.024 C 
BRANCH   8   9
ATOM      9  CE  LYS A   1     -40.353  27.922  -7.264  0.00  0.00    -0.086 C 
BRANCH   9  10
ATOM     10  NZ  LYS A   1     -40.136  26.588  -7.913  0.00  0.00    +0.380 N 
ATOM     11  HZ1 LYS A   1     -39.239  26.182  -7.578  0.00  0.00    -0.089 HD
ATOM     12  HZ2 LYS A   1     -40.920  25.951  -7.665  0.00  0.00    -0.089 HD
ATOM     13  HZ3 LYS A   1     -40.099  26.708  -8.945  0.00  0.00    -0.089 HD
ENDBRANCH   9  10
ENDBRANCH   8   9
ENDBRANCH   1   8
TORSDOF 7
REMARK  Name = ../refined-set-2016/3qlm/3qlm_pocket.pdb
REMARK  137 active torsions:
REMARK  status: ('A' for Active; 'I' for Inactive)
REMARK    1  A    between atoms: _1  and  _3
REMARK    2  A    between atoms: _3  and  _4
REMARK    3  A    between atoms: _3  and  _6
REMARK    4  A    between atoms: _6  and  _7
REMARK    5  A    between atoms: _10  and  _12
REMARK    6  A    between atoms: _12  and  _13
REMARK    7  A    between atoms: _12  and  _15
REMARK    8  A    between atoms: _15  and  _16
REMARK    9  A    between atoms: _26  and  _28
REMARK   10  A    between atoms: _28  and  _29
REMARK   11  A    between atoms: _28  and  _31
REMARK   12  A    between atoms: _31  and  _32
REMARK   13  A    between atoms: _38  and  _40
REMARK   14  A    between atoms: _40  and  _41
REMARK   15  A    between atoms: _40  and  _43
REMARK   16  A    between atoms: _43  and  _44
REMARK   17  A    between atoms: _44  and  _45
REMARK   18  A    between atoms: _45  and  _46
REMARK   19  A    between atoms: _55  and  _57
REMARK   20  A    between atoms: _57  and  _58
REMARK   21  A    between atoms: _57  and  _60
REMARK   22  A    between atoms: _60  and  _61
REMARK   23  A    between atoms: _63  and  _65
REMARK   24  A    between atoms: _65  and  _66
REMARK   25  A    between atoms: _65  and  _68
REMARK   26  A    between atoms: _68  and  _69
REMARK   27  A    between atoms: _72  and  _74
REMARK   28  A    between atoms: _74  and  _75
REMARK   29  A    between atoms: _74  and  _77
REMARK   30  A    between atoms: _77  and  _78
REMARK   31  A    between atoms: _78  and  _79
REMARK   32  A    between atoms: _79  and  _80
REMARK   33  A    between atoms: _80  and  _81
REMARK   34  A    between atoms: _85  and  _87
REMARK   35  A    between atoms: _87  and  _88
REMARK   36  A    between atoms: _87  and  _90
REMARK   37  A    between atoms: _90  and  _91
REMARK   38  A    between atoms: _97  and  _98
REMARK   39  A    between atoms: _103  and  _105
REMARK   40  A    between atoms: _105  and  _106
REMARK   41  A    between atoms: _105  and  _108
REMARK   42  A    between atoms: _108  and  _109
REMARK   43  A    between atoms: _112  and  _114
REMARK   44  A    between atoms: _114  and  _115
REMARK   45  A    between atoms: _114  and  _117
REMARK   46  A    between atoms: _117  and  _118
REMARK   47  A    between atoms: _118  and  _119
REMARK   48  A    between atoms: _121  and  _123
REMARK   49  A    between atoms: _123  and  _124
REMARK   50  A    between atoms: _123  and  _126
REMARK   51  A    between atoms: _126  and  _127
REMARK   52  A    between atoms: _130  and  _132
REMARK   53  A    between atoms: _132  and  _133
REMARK   54  A    between atoms: _132  and  _135
REMARK   55  A    between atoms: _135  and  _136
REMARK   56  A    between atoms: _142  and  _144
REMARK   57  A    between atoms: _144  and  _145
REMARK   58  A    between atoms: _144  and  _147
REMARK   59  A    between atoms: _147  and  _148
REMARK   60  A    between atoms: _153  and  _155
REMARK   61  A    between atoms: _155  and  _156
REMARK   62  A    between atoms: _155  and  _158
REMARK   63  A    between atoms: _158  and  _159
REMARK   64  A    between atoms: _164  and  _166
REMARK   65  A    between atoms: _166  and  _167
REMARK   66  A    between atoms: _166  and  _169
REMARK   67  A    between atoms: _169  and  _170
REMARK   68  A    between atoms: _175  and  _176
REMARK   69  A    between atoms: _178  and  _180
REMARK   70  A    between atoms: _180  and  _181
REMARK   71  A    between atoms: _180  and  _183
REMARK   72  A    between atoms: _183  and  _184
REMARK   73  A    between atoms: _189  and  _190
REMARK   74  A    between atoms: _194  and  _197
REMARK   75  A    between atoms: _197  and  _198
REMARK   76  A    between atoms: _198  and  _240
REMARK   77  A    between atoms: _206  and  _209
REMARK   78  A    between atoms: _209  and  _210
REMARK   79  A    between atoms: _218  and  _220
REMARK   80  A    between atoms: _220  and  _221
REMARK   81  A    between atoms: _220  and  _223
REMARK   82  A    between atoms: _223  and  _224
REMARK   83  A    between atoms: _227  and  _229
REMARK   84  A    between atoms: _229  and  _230
REMARK   85  A    between atoms: _229  and  _232
REMARK   86  A    between atoms: _234  and  _236
REMARK   87  A    between atoms: _236  and  _237
REMARK   88  A    between atoms: _236  and  _239
REMARK   89  A    between atoms: _239  and  _240
REMARK   90  A    between atoms: _241  and  _243
REMARK   91  A    between atoms: _243  and  _244
REMARK   92  A    between atoms: _243  and  _246
REMARK   93  A    between atoms: _246  and  _247
REMARK   94  A    between atoms: _247  and  _248
REMARK   95  A    between atoms: _251  and  _253
REMARK   96  A    between atoms: _253  and  _254
REMARK   97  A    between atoms: _253  and  _256
REMARK   98  A    between atoms: _256  and  _257
REMARK   99  A    between atoms: _262  and  _264
REMARK  100  A    between atoms: _264  and  _265
REMARK  101  A    between atoms: _264  and  _267
REMARK  102  A    between atoms: _267  and  _268
REMARK  103  A    between atoms: _271  and  _273
REMARK  104  A    between atoms: _273  and  _274
REMARK  105  A    between atoms: _273  and  _276
REMARK  106  A    between atoms: _276  and  _277
REMARK  107  A    between atoms: _282  and  _283
REMARK  108  A    between atoms: _285  and  _287
REMARK  109  A    between atoms: _287  and  _288
REMARK  110  A    between atoms: _287  and  _290
REMARK  111  A    between atoms: _290  and  _291
REMARK  112  A    between atoms: _296  and  _298
REMARK  113  A    between atoms: _298  and  _299
REMARK  114  A    between atoms: _298  and  _301
REMARK  115  A    between atoms: _301  and  _302
REMARK  116  A    between atoms: _307  and  _308
REMARK  117  A    between atoms: _310  and  _312
REMARK  118  A    between atoms: _312  and  _313
REMARK  119  A    between atoms: _312  and  _315
REMARK  120  A    between atoms: _315  and  _316
REMARK  121  A    between atoms: _319  and  _321
REMARK  122  A    between atoms: _321  and  _322
REMARK  123  A    between atoms: _321  and  _324
REMARK  124  A    between atoms: _324  and  _325
REMARK  125  A    between atoms: _328  and  _330
REMARK  126  A    between atoms: _330  and  _331
REMARK  127  A    between atoms: _334  and  _336
REMARK  128  A    between atoms: _336  and  _337
REMARK  129  A    between atoms: _336  and  _339
REMARK  130  A    between atoms: _339  and  _340
REMARK  131  A    between atoms: _346  and  _348
REMARK  132  A    between atoms: _348  and  _349
REMARK  133  A    between atoms: _348  and  _351
REMARK  134  A    between atoms: _351  and  _352
REMARK  135  A    between atoms: _352  and  _353
REMARK  136  A    between atoms: _353  and  _354
REMARK  137  A    between atoms: _354  and  _355
REMARK                            x       y       z     vdW  Elec       q    Type
REMARK                         _______ _______ _______ _____ _____    ______ ____
ROOT
ATOM      1  O   HOH     1     -43.074  18.254 -11.798  0.00  0.00    +0.000 OA
ENDROOT
TORSDOF 0
REMARK  Name = ../refined-set-2016/3qlm/3qlm_pocket.pdb
REMARK  137 active torsions:
REMARK  status: ('A' for Active; 'I' for Inactive)
REMARK    1  A    between atoms: _1  and  _3
REMARK    2  A    between atoms: _3  and  _4
REMARK    3  A    between atoms: _3  and  _6
REMARK    4  A    between atoms: _6  and  _7
REMARK    5  A    between atoms: _10  and  _12
REMARK    6  A    between atoms: _12  and  _13
REMARK    7  A    between atoms: _12  and  _15
REMARK    8  A    between atoms: _15  and  _16
REMARK    9  A    between atoms: _26  and  _28
REMARK   10  A    between atoms: _28  and  _29
REMARK   11  A    between atoms: _28  and  _31
REMARK   12  A    between atoms: _31  and  _32
REMARK   13  A    between atoms: _38  and  _40
REMARK   14  A    between atoms: _40  and  _41
REMARK   15  A    between atoms: _40  and  _43
REMARK   16  A    between atoms: _43  and  _44
REMARK   17  A    between atoms: _44  and  _45
REMARK   18  A    between atoms: _45  and  _46
REMARK   19  A    between atoms: _55  and  _57
REMARK   20  A    between atoms: _57  and  _58
REMARK   21  A    between atoms: _57  and  _60
REMARK   22  A    between atoms: _60  and  _61
REMARK   23  A    between atoms: _63  and  _65
REMARK   24  A    between atoms: _65  and  _66
REMARK   25  A    between atoms: _65  and  _68
REMARK   26  A    between atoms: _68  and  _69
REMARK   27  A    between atoms: _72  and  _74
REMARK   28  A    between atoms: _74  and  _75
REMARK   29  A    between atoms: _74  and  _77
REMARK   30  A    between atoms: _77  and  _78
REMARK   31  A    between atoms: _78  and  _79
REMARK   32  A    between atoms: _79  and  _80
REMARK   33  A    between atoms: _80  and  _81
REMARK   34  A    between atoms: _85  and  _87
REMARK   35  A    between atoms: _87  and  _88
REMARK   36  A    between atoms: _87  and  _90
REMARK   37  A    between atoms: _90  and  _91
REMARK   38  A    between atoms: _97  and  _98
REMARK   39  A    between atoms: _103  and  _105
REMARK   40  A    between atoms: _105  and  _106
REMARK   41  A    between atoms: _105  and  _108
REMARK   42  A    between atoms: _108  and  _109
REMARK   43  A    between atoms: _112  and  _114
REMARK   44  A    between atoms: _114  and  _115
REMARK   45  A    between atoms: _114  and  _117
REMARK   46  A    between atoms: _117  and  _118
REMARK   47  A    between atoms: _118  and  _119
REMARK   48  A    between atoms: _121  and  _123
REMARK   49  A    between atoms: _123  and  _124
REMARK   50  A    between atoms: _123  and  _126
REMARK   51  A    between atoms: _126  and  _127
REMARK   52  A    between atoms: _130  and  _132
REMARK   53  A    between atoms: _132  and  _133
REMARK   54  A    between atoms: _132  and  _135
REMARK   55  A    between atoms: _135  and  _136
REMARK   56  A    between atoms: _142  and  _144
REMARK   57  A    between atoms: _144  and  _145
REMARK   58  A    between atoms: _144  and  _147
REMARK   59  A    between atoms: _147  and  _148
REMARK   60  A    between atoms: _153  and  _155
REMARK   61  A    between atoms: _155  and  _156
REMARK   62  A    between atoms: _155  and  _158
REMARK   63  A    between atoms: _158  and  _159
REMARK   64  A    between atoms: _164  and  _166
REMARK   65  A    between atoms: _166  and  _167
REMARK   66  A    between atoms: _166  and  _169
REMARK   67  A    between atoms: _169  and  _170
REMARK   68  A    between atoms: _175  and  _176
REMARK   69  A    between atoms: _178  and  _180
REMARK   70  A    between atoms: _180  and  _181
REMARK   71  A    between atoms: _180  and  _183
REMARK   72  A    between atoms: _183  and  _184
REMARK   73  A    between atoms: _189  and  _190
REMARK   74  A    between atoms: _194  and  _197
REMARK   75  A    between atoms: _197  and  _198
REMARK   76  A    between atoms: _198  and  _240
REMARK   77  A    between atoms: _206  and  _209
REMARK   78  A    between atoms: _209  and  _210
REMARK   79  A    between atoms: _218  and  _220
REMARK   80  A    between atoms: _220  and  _221
REMARK   81  A    between atoms: _220  and  _223
REMARK   82  A    between atoms: _223  and  _224
REMARK   83  A    between atoms: _227  and  _229
REMARK   84  A    between atoms: _229  and  _230
REMARK   85  A    between atoms: _229  and  _232
REMARK   86  A    between atoms: _234  and  _236
REMARK   87  A    between atoms: _236  and  _237
REMARK   88  A    between atoms: _236  and  _239
REMARK   89  A    between atoms: _239  and  _240
REMARK   90  A    between atoms: _241  and  _243
REMARK   91  A    between atoms: _243  and  _244
REMARK   92  A    between atoms: _243  and  _246
REMARK   93  A    between atoms: _246  and  _247
REMARK   94  A    between atoms: _247  and  _248
REMARK   95  A    between atoms: _251  and  _253
REMARK   96  A    between atoms: _253  and  _254
REMARK   97  A    between atoms: _253  and  _256
REMARK   98  A    between atoms: _256  and  _257
REMARK   99  A    between atoms: _262  and  _264
REMARK  100  A    between atoms: _264  and  _265
REMARK  101  A    between atoms: _264  and  _267
REMARK  102  A    between atoms: _267  and  _268
REMARK  103  A    between atoms: _271  and  _273
REMARK  104  A    between atoms: _273  and  _274
REMARK  105  A    between atoms: _273  and  _276
REMARK  106  A    between atoms: _276  and  _277
REMARK  107  A    between atoms: _282  and  _283
REMARK  108  A    between atoms: _285  and  _287
REMARK  109  A    between atoms: _287  and  _288
REMARK  110  A    between atoms: _287  and  _290
REMARK  111  A    between atoms: _290  and  _291
REMARK  112  A    between atoms: _296  and  _298
REMARK  113  A    between atoms: _298  and  _299
REMARK  114  A    between atoms: _298  and  _301
REMARK  115  A    between atoms: _301  and  _302
REMARK  116  A    between atoms: _307  and  _308
REMARK  117  A    between atoms: _310  and  _312
REMARK  118  A    between atoms: _312  and  _313
REMARK  119  A    between atoms: _312  and  _315
REMARK  120  A    between atoms: _315  and  _316
REMARK  121  A    between atoms: _319  and  _321
REMARK  122  A    between atoms: _321  and  _322
REMARK  123  A    between atoms: _321  and  _324
REMARK  124  A    between atoms: _324  and  _325
REMARK  125  A    between atoms: _328  and  _330
REMARK  126  A    between atoms: _330  and  _331
REMARK  127  A    between atoms: _334  and  _336
REMARK  128  A    between atoms: _336  and  _337
REMARK  129  A    between atoms: _336  and  _339
REMARK  130  A    between atoms: _339  and  _340
REMARK  131  A    between atoms: _346  and  _348
REMARK  132  A    between atoms: _348  and  _349
REMARK  133  A    between atoms: _348  and  _351
REMARK  134  A    between atoms: _351  and  _352
REMARK  135  A    between atoms: _352  and  _353
REMARK  136  A    between atoms: _353  and  _354
REMARK  137  A    between atoms: _354  and  _355
REMARK                            x       y       z     vdW  Elec       q    Type
REMARK                         _______ _______ _______ _____ _____    ______ ____
ROOT
ATOM      1  O   HOH     1     -30.592  15.611  -3.813  0.00  0.00    +0.000 OA
ENDROOT
TORSDOF 0
REMARK  Name = ../refined-set-2016/3qlm/3qlm_pocket.pdb
REMARK  137 active torsions:
REMARK  status: ('A' for Active; 'I' for Inactive)
REMARK    1  A    between atoms: _1  and  _3
REMARK    2  A    between atoms: _3  and  _4
REMARK    3  A    between atoms: _3  and  _6
REMARK    4  A    between atoms: _6  and  _7
REMARK    5  A    between atoms: _10  and  _12
REMARK    6  A    between atoms: _12  and  _13
REMARK    7  A    between atoms: _12  and  _15
REMARK    8  A    between atoms: _15  and  _16
REMARK    9  A    between atoms: _26  and  _28
REMARK   10  A    between atoms: _28  and  _29
REMARK   11  A    between atoms: _28  and  _31
REMARK   12  A    between atoms: _31  and  _32
REMARK   13  A    between atoms: _38  and  _40
REMARK   14  A    between atoms: _40  and  _41
REMARK   15  A    between atoms: _40  and  _43
REMARK   16  A    between atoms: _43  and  _44
REMARK   17  A    between atoms: _44  and  _45
REMARK   18  A    between atoms: _45  and  _46
REMARK   19  A    between atoms: _55  and  _57
REMARK   20  A    between atoms: _57  and  _58
REMARK   21  A    between atoms: _57  and  _60
REMARK   22  A    between atoms: _60  and  _61
REMARK   23  A    between atoms: _63  and  _65
REMARK   24  A    between atoms: _65  and  _66
REMARK   25  A    between atoms: _65  and  _68
REMARK   26  A    between atoms: _68  and  _69
REMARK   27  A    between atoms: _72  and  _74
REMARK   28  A    between atoms: _74  and  _75
REMARK   29  A    between atoms: _74  and  _77
REMARK   30  A    between atoms: _77  and  _78
REMARK   31  A    between atoms: _78  and  _79
REMARK   32  A    between atoms: _79  and  _80
REMARK   33  A    between atoms: _80  and  _81
REMARK   34  A    between atoms: _85  and  _87
REMARK   35  A    between atoms: _87  and  _88
REMARK   36  A    between atoms: _87  and  _90
REMARK   37  A    between atoms: _90  and  _91
REMARK   38  A    between atoms: _97  and  _98
REMARK   39  A    between atoms: _103  and  _105
REMARK   40  A    between atoms: _105  and  _106
REMARK   41  A    between atoms: _105  and  _108
REMARK   42  A    between atoms: _108  and  _109
REMARK   43  A    between atoms: _112  and  _114
REMARK   44  A    between atoms: _114  and  _115
REMARK   45  A    between atoms: _114  and  _117
REMARK   46  A    between atoms: _117  and  _118
REMARK   47  A    between atoms: _118  and  _119
REMARK   48  A    between atoms: _121  and  _123
REMARK   49  A    between atoms: _123  and  _124
REMARK   50  A    between atoms: _123  and  _126
REMARK   51  A    between atoms: _126  and  _127
REMARK   52  A    between atoms: _130  and  _132
REMARK   53  A    between atoms: _132  and  _133
REMARK   54  A    between atoms: _132  and  _135
REMARK   55  A    between atoms: _135  and  _136
REMARK   56  A    between atoms: _142  and  _144
REMARK   57  A    between atoms: _144  and  _145
REMARK   58  A    between atoms: _144  and  _147
REMARK   59  A    between atoms: _147  and  _148
REMARK   60  A    between atoms: _153  and  _155
REMARK   61  A    between atoms: _155  and  _156
REMARK   62  A    between atoms: _155  and  _158
REMARK   63  A    between atoms: _158  and  _159
REMARK   64  A    between atoms: _164  and  _166
REMARK   65  A    between atoms: _166  and  _167
REMARK   66  A    between atoms: _166  and  _169
REMARK   67  A    between atoms: _169  and  _170
REMARK   68  A    between atoms: _175  and  _176
REMARK   69  A    between atoms: _178  and  _180
REMARK   70  A    between atoms: _180  and  _181
REMARK   71  A    between atoms: _180  and  _183
REMARK   72  A    between atoms: _183  and  _184
REMARK   73  A    between atoms: _189  and  _190
REMARK   74  A    between atoms: _194  and  _197
REMARK   75  A    between atoms: _197  and  _198
REMARK   76  A    between atoms: _198  and  _240
REMARK   77  A    between atoms: _206  and  _209
REMARK   78  A    between atoms: _209  and  _210
REMARK   79  A    between atoms: _218  and  _220
REMARK   80  A    between atoms: _220  and  _221
REMARK   81  A    between atoms: _220  and  _223
REMARK   82  A    between atoms: _223  and  _224
REMARK   83  A    between atoms: _227  and  _229
REMARK   84  A    between atoms: _229  and  _230
REMARK   85  A    between atoms: _229  and  _232
REMARK   86  A    between atoms: _234  and  _236
REMARK   87  A    between atoms: _236  and  _237
REMARK   88  A    between atoms: _236  and  _239
REMARK   89  A    between atoms: _239  and  _240
REMARK   90  A    between atoms: _241  and  _243
REMARK   91  A    between atoms: _243  and  _244
REMARK   92  A    between atoms: _243  and  _246
REMARK   93  A    between atoms: _246  and  _247
REMARK   94  A    between atoms: _247  and  _248
REMARK   95  A    between atoms: _251  and  _253
REMARK   96  A    between atoms: _253  and  _254
REMARK   97  A    between atoms: _253  and  _256
REMARK   98  A    between atoms: _256  and  _257
REMARK   99  A    between atoms: _262  and  _264
REMARK  100  A    between atoms: _264  and  _265
REMARK  101  A    between atoms: _264  and  _267
REMARK  102  A    between atoms: _267  and  _268
REMARK  103  A    between atoms: _271  and  _273
REMARK  104  A    between atoms: _273  and  _274
REMARK  105  A    between atoms: _273  and  _276
REMARK  106  A    between atoms: _276  and  _277
REMARK  107  A    between atoms: _282  and  _283
REMARK  108  A    between atoms: _285  and  _287
REMARK  109  A    between atoms: _287  and  _288
REMARK  110  A    between atoms: _287  and  _290
REMARK  111  A    between atoms: _290  and  _291
REMARK  112  A    between atoms: _296  and  _298
REMARK  113  A    between atoms: _298  and  _299
REMARK  114  A    between atoms: _298  and  _301
REMARK  115  A    between atoms: _301  and  _302
REMARK  116  A    between atoms: _307  and  _308
REMARK  117  A    between atoms: _310  and  _312
REMARK  118  A    between atoms: _312  and  _313
REMARK  119  A    between atoms: _312  and  _315
REMARK  120  A    between atoms: _315  and  _316
REMARK  121  A    between atoms: _319  and  _321
REMARK  122  A    between atoms: _321  and  _322
REMARK  123  A    between atoms: _321  and  _324
REMARK  124  A    between atoms: _324  and  _325
REMARK  125  A    between atoms: _328  and  _330
REMARK  126  A    between atoms: _330  and  _331
REMARK  127  A    between atoms: _334  and  _336
REMARK  128  A    between atoms: _336  and  _337
REMARK  129  A    between atoms: _336  and  _339
REMARK  130  A    between atoms: _339  and  _340
REMARK  131  A    between atoms: _346  and  _348
REMARK  132  A    between atoms: _348  and  _349
REMARK  133  A    between atoms: _348  and  _351
REMARK  134  A    between atoms: _351  and  _352
REMARK  135  A    between atoms: _352  and  _353
REMARK  136  A    between atoms: _353  and  _354
REMARK  137  A    between atoms: _354  and  _355
REMARK                            x       y       z     vdW  Elec       q    Type
REMARK                         _______ _______ _______ _____ _____    ______ ____
ROOT
ATOM      1  O   HOH     1     -28.179  18.574  -5.220  0.00  0.00    +0.000 OA
ENDROOT
TORSDOF 0
REMARK  Name = ../refined-set-2016/3qlm/3qlm_pocket.pdb
REMARK  137 active torsions:
REMARK  status: ('A' for Active; 'I' for Inactive)
REMARK    1  A    between atoms: _1  and  _3
REMARK    2  A    between atoms: _3  and  _4
REMARK    3  A    between atoms: _3  and  _6
REMARK    4  A    between atoms: _6  and  _7
REMARK    5  A    between atoms: _10  and  _12
REMARK    6  A    between atoms: _12  and  _13
REMARK    7  A    between atoms: _12  and  _15
REMARK    8  A    between atoms: _15  and  _16
REMARK    9  A    between atoms: _26  and  _28
REMARK   10  A    between atoms: _28  and  _29
REMARK   11  A    between atoms: _28  and  _31
REMARK   12  A    between atoms: _31  and  _32
REMARK   13  A    between atoms: _38  and  _40
REMARK   14  A    between atoms: _40  and  _41
REMARK   15  A    between atoms: _40  and  _43
REMARK   16  A    between atoms: _43  and  _44
REMARK   17  A    between atoms: _44  and  _45
REMARK   18  A    between atoms: _45  and  _46
REMARK   19  A    between atoms: _55  and  _57
REMARK   20  A    between atoms: _57  and  _58
REMARK   21  A    between atoms: _57  and  _60
REMARK   22  A    between atoms: _60  and  _61
REMARK   23  A    between atoms: _63  and  _65
REMARK   24  A    between atoms: _65  and  _66
REMARK   25  A    between atoms: _65  and  _68
REMARK   26  A    between atoms: _68  and  _69
REMARK   27  A    between atoms: _72  and  _74
REMARK   28  A    between atoms: _74  and  _75
REMARK   29  A    between atoms: _74  and  _77
REMARK   30  A    between atoms: _77  and  _78
REMARK   31  A    between atoms: _78  and  _79
REMARK   32  A    between atoms: _79  and  _80
REMARK   33  A    between atoms: _80  and  _81
REMARK   34  A    between atoms: _85  and  _87
REMARK   35  A    between atoms: _87  and  _88
REMARK   36  A    between atoms: _87  and  _90
REMARK   37  A    between atoms: _90  and  _91
REMARK   38  A    between atoms: _97  and  _98
REMARK   39  A    between atoms: _103  and  _105
REMARK   40  A    between atoms: _105  and  _106
REMARK   41  A    between atoms: _105  and  _108
REMARK   42  A    between atoms: _108  and  _109
REMARK   43  A    between atoms: _112  and  _114
REMARK   44  A    between atoms: _114  and  _115
REMARK   45  A    between atoms: _114  and  _117
REMARK   46  A    between atoms: _117  and  _118
REMARK   47  A    between atoms: _118  and  _119
REMARK   48  A    between atoms: _121  and  _123
REMARK   49  A    between atoms: _123  and  _124
REMARK   50  A    between atoms: _123  and  _126
REMARK   51  A    between atoms: _126  and  _127
REMARK   52  A    between atoms: _130  and  _132
REMARK   53  A    between atoms: _132  and  _133
REMARK   54  A    between atoms: _132  and  _135
REMARK   55  A    between atoms: _135  and  _136
REMARK   56  A    between atoms: _142  and  _144
REMARK   57  A    between atoms: _144  and  _145
REMARK   58  A    between atoms: _144  and  _147
REMARK   59  A    between atoms: _147  and  _148
REMARK   60  A    between atoms: _153  and  _155
REMARK   61  A    between atoms: _155  and  _156
REMARK   62  A    between atoms: _155  and  _158
REMARK   63  A    between atoms: _158  and  _159
REMARK   64  A    between atoms: _164  and  _166
REMARK   65  A    between atoms: _166  and  _167
REMARK   66  A    between atoms: _166  and  _169
REMARK   67  A    between atoms: _169  and  _170
REMARK   68  A    between atoms: _175  and  _176
REMARK   69  A    between atoms: _178  and  _180
REMARK   70  A    between atoms: _180  and  _181
REMARK   71  A    between atoms: _180  and  _183
REMARK   72  A    between atoms: _183  and  _184
REMARK   73  A    between atoms: _189  and  _190
REMARK   74  A    between atoms: _194  and  _197
REMARK   75  A    between atoms: _197  and  _198
REMARK   76  A    between atoms: _198  and  _240
REMARK   77  A    between atoms: _206  and  _209
REMARK   78  A    between atoms: _209  and  _210
REMARK   79  A    between atoms: _218  and  _220
REMARK   80  A    between atoms: _220  and  _221
REMARK   81  A    between atoms: _220  and  _223
REMARK   82  A    between atoms: _223  and  _224
REMARK   83  A    between atoms: _227  and  _229
REMARK   84  A    between atoms: _229  and  _230
REMARK   85  A    between atoms: _229  and  _232
REMARK   86  A    between atoms: _234  and  _236
REMARK   87  A    between atoms: _236  and  _237
REMARK   88  A    between atoms: _236  and  _239
REMARK   89  A    between atoms: _239  and  _240
REMARK   90  A    between atoms: _241  and  _243
REMARK   91  A    between atoms: _243  and  _244
REMARK   92  A    between atoms: _243  and  _246
REMARK   93  A    between atoms: _246  and  _247
REMARK   94  A    between atoms: _247  and  _248
REMARK   95  A    between atoms: _251  and  _253
REMARK   96  A    between atoms: _253  and  _254
REMARK   97  A    between atoms: _253  and  _256
REMARK   98  A    between atoms: _256  and  _257
REMARK   99  A    between atoms: _262  and  _264
REMARK  100  A    between atoms: _264  and  _265
REMARK  101  A    between atoms: _264  and  _267
REMARK  102  A    between atoms: _267  and  _268
REMARK  103  A    between atoms: _271  and  _273
REMARK  104  A    between atoms: _273  and  _274
REMARK  105  A    between atoms: _273  and  _276
REMARK  106  A    between atoms: _276  and  _277
REMARK  107  A    between atoms: _282  and  _283
REMARK  108  A    between atoms: _285  and  _287
REMARK  109  A    between atoms: _287  and  _288
REMARK  110  A    between atoms: _287  and  _290
REMARK  111  A    between atoms: _290  and  _291
REMARK  112  A    between atoms: _296  and  _298
REMARK  113  A    between atoms: _298  and  _299
REMARK  114  A    between atoms: _298  and  _301
REMARK  115  A    between atoms: _301  and  _302
REMARK  116  A    between atoms: _307  and  _308
REMARK  117  A    between atoms: _310  and  _312
REMARK  118  A    between atoms: _312  and  _313
REMARK  119  A    between atoms: _312  and  _315
REMARK  120  A    between atoms: _315  and  _316
REMARK  121  A    between atoms: _319  and  _321
REMARK  122  A    between atoms: _321  and  _322
REMARK  123  A    between atoms: _321  and  _324
REMARK  124  A    between atoms: _324  and  _325
REMARK  125  A    between atoms: _328  and  _330
REMARK  126  A    between atoms: _330  and  _331
REMARK  127  A    between atoms: _334  and  _336
REMARK  128  A    between atoms: _336  and  _337
REMARK  129  A    between atoms: _336  and  _339
REMARK  130  A    between atoms: _339  and  _340
REMARK  131  A    between atoms: _346  and  _348
REMARK  132  A    between atoms: _348  and  _349
REMARK  133  A    between atoms: _348  and  _351
REMARK  134  A    between atoms: _351  and  _352
REMARK  135  A    between atoms: _352  and  _353
REMARK  136  A    between atoms: _353  and  _354
REMARK  137  A    between atoms: _354  and  _355
REMARK                            x       y       z     vdW  Elec       q    Type
REMARK                         _______ _______ _______ _____ _____    ______ ____
ROOT
ATOM      1  O   HOH     1     -36.050  10.297 -14.220  0.00  0.00    +0.000 OA
ENDROOT
TORSDOF 0
REMARK  Name = ../refined-set-2016/3qlm/3qlm_pocket.pdb
REMARK  137 active torsions:
REMARK  status: ('A' for Active; 'I' for Inactive)
REMARK    1  A    between atoms: _1  and  _3
REMARK    2  A    between atoms: _3  and  _4
REMARK    3  A    between atoms: _3  and  _6
REMARK    4  A    between atoms: _6  and  _7
REMARK    5  A    between atoms: _10  and  _12
REMARK    6  A    between atoms: _12  and  _13
REMARK    7  A    between atoms: _12  and  _15
REMARK    8  A    between atoms: _15  and  _16
REMARK    9  A    between atoms: _26  and  _28
REMARK   10  A    between atoms: _28  and  _29
REMARK   11  A    between atoms: _28  and  _31
REMARK   12  A    between atoms: _31  and  _32
REMARK   13  A    between atoms: _38  and  _40
REMARK   14  A    between atoms: _40  and  _41
REMARK   15  A    between atoms: _40  and  _43
REMARK   16  A    between atoms: _43  and  _44
REMARK   17  A    between atoms: _44  and  _45
REMARK   18  A    between atoms: _45  and  _46
REMARK   19  A    between atoms: _55  and  _57
REMARK   20  A    between atoms: _57  and  _58
REMARK   21  A    between atoms: _57  and  _60
REMARK   22  A    between atoms: _60  and  _61
REMARK   23  A    between atoms: _63  and  _65
REMARK   24  A    between atoms: _65  and  _66
REMARK   25  A    between atoms: _65  and  _68
REMARK   26  A    between atoms: _68  and  _69
REMARK   27  A    between atoms: _72  and  _74
REMARK   28  A    between atoms: _74  and  _75
REMARK   29  A    between atoms: _74  and  _77
REMARK   30  A    between atoms: _77  and  _78
REMARK   31  A    between atoms: _78  and  _79
REMARK   32  A    between atoms: _79  and  _80
REMARK   33  A    between atoms: _80  and  _81
REMARK   34  A    between atoms: _85  and  _87
REMARK   35  A    between atoms: _87  and  _88
REMARK   36  A    between atoms: _87  and  _90
REMARK   37  A    between atoms: _90  and  _91
REMARK   38  A    between atoms: _97  and  _98
REMARK   39  A    between atoms: _103  and  _105
REMARK   40  A    between atoms: _105  and  _106
REMARK   41  A    between atoms: _105  and  _108
REMARK   42  A    between atoms: _108  and  _109
REMARK   43  A    between atoms: _112  and  _114
REMARK   44  A    between atoms: _114  and  _115
REMARK   45  A    between atoms: _114  and  _117
REMARK   46  A    between atoms: _117  and  _118
REMARK   47  A    between atoms: _118  and  _119
REMARK   48  A    between atoms: _121  and  _123
REMARK   49  A    between atoms: _123  and  _124
REMARK   50  A    between atoms: _123  and  _126
REMARK   51  A    between atoms: _126  and  _127
REMARK   52  A    between atoms: _130  and  _132
REMARK   53  A    between atoms: _132  and  _133
REMARK   54  A    between atoms: _132  and  _135
REMARK   55  A    between atoms: _135  and  _136
REMARK   56  A    between atoms: _142  and  _144
REMARK   57  A    between atoms: _144  and  _145
REMARK   58  A    between atoms: _144  and  _147
REMARK   59  A    between atoms: _147  and  _148
REMARK   60  A    between atoms: _153  and  _155
REMARK   61  A    between atoms: _155  and  _156
REMARK   62  A    between atoms: _155  and  _158
REMARK   63  A    between atoms: _158  and  _159
REMARK   64  A    between atoms: _164  and  _166
REMARK   65  A    between atoms: _166  and  _167
REMARK   66  A    between atoms: _166  and  _169
REMARK   67  A    between atoms: _169  and  _170
REMARK   68  A    between atoms: _175  and  _176
REMARK   69  A    between atoms: _178  and  _180
REMARK   70  A    between atoms: _180  and  _181
REMARK   71  A    between atoms: _180  and  _183
REMARK   72  A    between atoms: _183  and  _184
REMARK   73  A    between atoms: _189  and  _190
REMARK   74  A    between atoms: _194  and  _197
REMARK   75  A    between atoms: _197  and  _198
REMARK   76  A    between atoms: _198  and  _240
REMARK   77  A    between atoms: _206  and  _209
REMARK   78  A    between atoms: _209  and  _210
REMARK   79  A    between atoms: _218  and  _220
REMARK   80  A    between atoms: _220  and  _221
REMARK   81  A    between atoms: _220  and  _223
REMARK   82  A    between atoms: _223  and  _224
REMARK   83  A    between atoms: _227  and  _229
REMARK   84  A    between atoms: _229  and  _230
REMARK   85  A    between atoms: _229  and  _232
REMARK   86  A    between atoms: _234  and  _236
REMARK   87  A    between atoms: _236  and  _237
REMARK   88  A    between atoms: _236  and  _239
REMARK   89  A    between atoms: _239  and  _240
REMARK   90  A    between atoms: _241  and  _243
REMARK   91  A    between atoms: _243  and  _244
REMARK   92  A    between atoms: _243  and  _246
REMARK   93  A    between atoms: _246  and  _247
REMARK   94  A    between atoms: _247  and  _248
REMARK   95  A    between atoms: _251  and  _253
REMARK   96  A    between atoms: _253  and  _254
REMARK   97  A    between atoms: _253  and  _256
REMARK   98  A    between atoms: _256  and  _257
REMARK   99  A    between atoms: _262  and  _264
REMARK  100  A    between atoms: _264  and  _265
REMARK  101  A    between atoms: _264  and  _267
REMARK  102  A    between atoms: _267  and  _268
REMARK  103  A    between atoms: _271  and  _273
REMARK  104  A    between atoms: _273  and  _274
REMARK  105  A    between atoms: _273  and  _276
REMARK  106  A    between atoms: _276  and  _277
REMARK  107  A    between atoms: _282  and  _283
REMARK  108  A    between atoms: _285  and  _287
REMARK  109  A    between atoms: _287  and  _288
REMARK  110  A    between atoms: _287  and  _290
REMARK  111  A    between atoms: _290  and  _291
REMARK  112  A    between atoms: _296  and  _298
REMARK  113  A    between atoms: _298  and  _299
REMARK  114  A    between atoms: _298  and  _301
REMARK  115  A    between atoms: _301  and  _302
REMARK  116  A    between atoms: _307  and  _308
REMARK  117  A    between atoms: _310  and  _312
REMARK  118  A    between atoms: _312  and  _313
REMARK  119  A    between atoms: _312  and  _315
REMARK  120  A    between atoms: _315  and  _316
REMARK  121  A    between atoms: _319  and  _321
REMARK  122  A    between atoms: _321  and  _322
REMARK  123  A    between atoms: _321  and  _324
REMARK  124  A    between atoms: _324  and  _325
REMARK  125  A    between atoms: _328  and  _330
REMARK  126  A    between atoms: _330  and  _331
REMARK  127  A    between atoms: _334  and  _336
REMARK  128  A    between atoms: _336  and  _337
REMARK  129  A    between atoms: _336  and  _339
REMARK  130  A    between atoms: _339  and  _340
REMARK  131  A    between atoms: _346  and  _348
REMARK  132  A    between atoms: _348  and  _349
REMARK  133  A    between atoms: _348  and  _351
REMARK  134  A    between atoms: _351  and  _352
REMARK  135  A    between atoms: _352  and  _353
REMARK  136  A    between atoms: _353  and  _354
REMARK  137  A    between atoms: _354  and  _355
REMARK                            x       y       z     vdW  Elec       q    Type
REMARK                         _______ _______ _______ _____ _____    ______ ____
ROOT
ATOM      1  O   HOH     1     -27.694  13.609  -8.113  0.00  0.00    +0.000 OA
ENDROOT
TORSDOF 0
REMARK  Name = ../refined-set-2016/3qlm/3qlm_pocket.pdb
REMARK  137 active torsions:
REMARK  status: ('A' for Active; 'I' for Inactive)
REMARK    1  A    between atoms: _1  and  _3
REMARK    2  A    between atoms: _3  and  _4
REMARK    3  A    between atoms: _3  and  _6
REMARK    4  A    between atoms: _6  and  _7
REMARK    5  A    between atoms: _10  and  _12
REMARK    6  A    between atoms: _12  and  _13
REMARK    7  A    between atoms: _12  and  _15
REMARK    8  A    between atoms: _15  and  _16
REMARK    9  A    between atoms: _26  and  _28
REMARK   10  A    between atoms: _28  and  _29
REMARK   11  A    between atoms: _28  and  _31
REMARK   12  A    between atoms: _31  and  _32
REMARK   13  A    between atoms: _38  and  _40
REMARK   14  A    between atoms: _40  and  _41
REMARK   15  A    between atoms: _40  and  _43
REMARK   16  A    between atoms: _43  and  _44
REMARK   17  A    between atoms: _44  and  _45
REMARK   18  A    between atoms: _45  and  _46
REMARK   19  A    between atoms: _55  and  _57
REMARK   20  A    between atoms: _57  and  _58
REMARK   21  A    between atoms: _57  and  _60
REMARK   22  A    between atoms: _60  and  _61
REMARK   23  A    between atoms: _63  and  _65
REMARK   24  A    between atoms: _65  and  _66
REMARK   25  A    between atoms: _65  and  _68
REMARK   26  A    between atoms: _68  and  _69
REMARK   27  A    between atoms: _72  and  _74
REMARK   28  A    between atoms: _74  and  _75
REMARK   29  A    between atoms: _74  and  _77
REMARK   30  A    between atoms: _77  and  _78
REMARK   31  A    between atoms: _78  and  _79
REMARK   32  A    between atoms: _79  and  _80
REMARK   33  A    between atoms: _80  and  _81
REMARK   34  A    between atoms: _85  and  _87
REMARK   35  A    between atoms: _87  and  _88
REMARK   36  A    between atoms: _87  and  _90
REMARK   37  A    between atoms: _90  and  _91
REMARK   38  A    between atoms: _97  and  _98
REMARK   39  A    between atoms: _103  and  _105
REMARK   40  A    between atoms: _105  and  _106
REMARK   41  A    between atoms: _105  and  _108
REMARK   42  A    between atoms: _108  and  _109
REMARK   43  A    between atoms: _112  and  _114
REMARK   44  A    between atoms: _114  and  _115
REMARK   45  A    between atoms: _114  and  _117
REMARK   46  A    between atoms: _117  and  _118
REMARK   47  A    between atoms: _118  and  _119
REMARK   48  A    between atoms: _121  and  _123
REMARK   49  A    between atoms: _123  and  _124
REMARK   50  A    between atoms: _123  and  _126
REMARK   51  A    between atoms: _126  and  _127
REMARK   52  A    between atoms: _130  and  _132
REMARK   53  A    between atoms: _132  and  _133
REMARK   54  A    between atoms: _132  and  _135
REMARK   55  A    between atoms: _135  and  _136
REMARK   56  A    between atoms: _142  and  _144
REMARK   57  A    between atoms: _144  and  _145
REMARK   58  A    between atoms: _144  and  _147
REMARK   59  A    between atoms: _147  and  _148
REMARK   60  A    between atoms: _153  and  _155
REMARK   61  A    between atoms: _155  and  _156
REMARK   62  A    between atoms: _155  and  _158
REMARK   63  A    between atoms: _158  and  _159
REMARK   64  A    between atoms: _164  and  _166
REMARK   65  A    between atoms: _166  and  _167
REMARK   66  A    between atoms: _166  and  _169
REMARK   67  A    between atoms: _169  and  _170
REMARK   68  A    between atoms: _175  and  _176
REMARK   69  A    between atoms: _178  and  _180
REMARK   70  A    between atoms: _180  and  _181
REMARK   71  A    between atoms: _180  and  _183
REMARK   72  A    between atoms: _183  and  _184
REMARK   73  A    between atoms: _189  and  _190
REMARK   74  A    between atoms: _194  and  _197
REMARK   75  A    between atoms: _197  and  _198
REMARK   76  A    between atoms: _198  and  _240
REMARK   77  A    between atoms: _206  and  _209
REMARK   78  A    between atoms: _209  and  _210
REMARK   79  A    between atoms: _218  and  _220
REMARK   80  A    between atoms: _220  and  _221
REMARK   81  A    between atoms: _220  and  _223
REMARK   82  A    between atoms: _223  and  _224
REMARK   83  A    between atoms: _227  and  _229
REMARK   84  A    between atoms: _229  and  _230
REMARK   85  A    between atoms: _229  and  _232
REMARK   86  A    between atoms: _234  and  _236
REMARK   87  A    between atoms: _236  and  _237
REMARK   88  A    between atoms: _236  and  _239
REMARK   89  A    between atoms: _239  and  _240
REMARK   90  A    between atoms: _241  and  _243
REMARK   91  A    between atoms: _243  and  _244
REMARK   92  A    between atoms: _243  and  _246
REMARK   93  A    between atoms: _246  and  _247
REMARK   94  A    between atoms: _247  and  _248
REMARK   95  A    between atoms: _251  and  _253
REMARK   96  A    between atoms: _253  and  _254
REMARK   97  A    between atoms: _253  and  _256
REMARK   98  A    between atoms: _256  and  _257
REMARK   99  A    between atoms: _262  and  _264
REMARK  100  A    between atoms: _264  and  _265
REMARK  101  A    between atoms: _264  and  _267
REMARK  102  A    between atoms: _267  and  _268
REMARK  103  A    between atoms: _271  and  _273
REMARK  104  A    between atoms: _273  and  _274
REMARK  105  A    between atoms: _273  and  _276
REMARK  106  A    between atoms: _276  and  _277
REMARK  107  A    between atoms: _282  and  _283
REMARK  108  A    between atoms: _285  and  _287
REMARK  109  A    between atoms: _287  and  _288
REMARK  110  A    between atoms: _287  and  _290
REMARK  111  A    between atoms: _290  and  _291
REMARK  112  A    between atoms: _296  and  _298
REMARK  113  A    between atoms: _298  and  _299
REMARK  114  A    between atoms: _298  and  _301
REMARK  115  A    between atoms: _301  and  _302
REMARK  116  A    between atoms: _307  and  _308
REMARK  117  A    between atoms: _310  and  _312
REMARK  118  A    between atoms: _312  and  _313
REMARK  119  A    between atoms: _312  and  _315
REMARK  120  A    between atoms: _315  and  _316
REMARK  121  A    between atoms: _319  and  _321
REMARK  122  A    between atoms: _321  and  _322
REMARK  123  A    between atoms: _321  and  _324
REMARK  124  A    between atoms: _324  and  _325
REMARK  125  A    between atoms: _328  and  _330
REMARK  126  A    between atoms: _330  and  _331
REMARK  127  A    between atoms: _334  and  _336
REMARK  128  A    between atoms: _336  and  _337
REMARK  129  A    between atoms: _336  and  _339
REMARK  130  A    between atoms: _339  and  _340
REMARK  131  A    between atoms: _346  and  _348
REMARK  132  A    between atoms: _348  and  _349
REMARK  133  A    between atoms: _348  and  _351
REMARK  134  A    between atoms: _351  and  _352
REMARK  135  A    between atoms: _352  and  _353
REMARK  136  A    between atoms: _353  and  _354
REMARK  137  A    between atoms: _354  and  _355
REMARK                            x       y       z     vdW  Elec       q    Type
REMARK                         _______ _______ _______ _____ _____    ______ ____
ROOT
ATOM      1  O   HOH     1     -28.486  14.810  -5.364  0.00  0.00    +0.000 OA
ENDROOT
TORSDOF 0
REMARK  Name = ../refined-set-2016/3qlm/3qlm_pocket.pdb
REMARK  137 active torsions:
REMARK  status: ('A' for Active; 'I' for Inactive)
REMARK    1  A    between atoms: _1  and  _3
REMARK    2  A    between atoms: _3  and  _4
REMARK    3  A    between atoms: _3  and  _6
REMARK    4  A    between atoms: _6  and  _7
REMARK    5  A    between atoms: _10  and  _12
REMARK    6  A    between atoms: _12  and  _13
REMARK    7  A    between atoms: _12  and  _15
REMARK    8  A    between atoms: _15  and  _16
REMARK    9  A    between atoms: _26  and  _28
REMARK   10  A    between atoms: _28  and  _29
REMARK   11  A    between atoms: _28  and  _31
REMARK   12  A    between atoms: _31  and  _32
REMARK   13  A    between atoms: _38  and  _40
REMARK   14  A    between atoms: _40  and  _41
REMARK   15  A    between atoms: _40  and  _43
REMARK   16  A    between atoms: _43  and  _44
REMARK   17  A    between atoms: _44  and  _45
REMARK   18  A    between atoms: _45  and  _46
REMARK   19  A    between atoms: _55  and  _57
REMARK   20  A    between atoms: _57  and  _58
REMARK   21  A    between atoms: _57  and  _60
REMARK   22  A    between atoms: _60  and  _61
REMARK   23  A    between atoms: _63  and  _65
REMARK   24  A    between atoms: _65  and  _66
REMARK   25  A    between atoms: _65  and  _68
REMARK   26  A    between atoms: _68  and  _69
REMARK   27  A    between atoms: _72  and  _74
REMARK   28  A    between atoms: _74  and  _75
REMARK   29  A    between atoms: _74  and  _77
REMARK   30  A    between atoms: _77  and  _78
REMARK   31  A    between atoms: _78  and  _79
REMARK   32  A    between atoms: _79  and  _80
REMARK   33  A    between atoms: _80  and  _81
REMARK   34  A    between atoms: _85  and  _87
REMARK   35  A    between atoms: _87  and  _88
REMARK   36  A    between atoms: _87  and  _90
REMARK   37  A    between atoms: _90  and  _91
REMARK   38  A    between atoms: _97  and  _98
REMARK   39  A    between atoms: _103  and  _105
REMARK   40  A    between atoms: _105  and  _106
REMARK   41  A    between atoms: _105  and  _108
REMARK   42  A    between atoms: _108  and  _109
REMARK   43  A    between atoms: _112  and  _114
REMARK   44  A    between atoms: _114  and  _115
REMARK   45  A    between atoms: _114  and  _117
REMARK   46  A    between atoms: _117  and  _118
REMARK   47  A    between atoms: _118  and  _119
REMARK   48  A    between atoms: _121  and  _123
REMARK   49  A    between atoms: _123  and  _124
REMARK   50  A    between atoms: _123  and  _126
REMARK   51  A    between atoms: _126  and  _127
REMARK   52  A    between atoms: _130  and  _132
REMARK   53  A    between atoms: _132  and  _133
REMARK   54  A    between atoms: _132  and  _135
REMARK   55  A    between atoms: _135  and  _136
REMARK   56  A    between atoms: _142  and  _144
REMARK   57  A    between atoms: _144  and  _145
REMARK   58  A    between atoms: _144  and  _147
REMARK   59  A    between atoms: _147  and  _148
REMARK   60  A    between atoms: _153  and  _155
REMARK   61  A    between atoms: _155  and  _156
REMARK   62  A    between atoms: _155  and  _158
REMARK   63  A    between atoms: _158  and  _159
REMARK   64  A    between atoms: _164  and  _166
REMARK   65  A    between atoms: _166  and  _167
REMARK   66  A    between atoms: _166  and  _169
REMARK   67  A    between atoms: _169  and  _170
REMARK   68  A    between atoms: _175  and  _176
REMARK   69  A    between atoms: _178  and  _180
REMARK   70  A    between atoms: _180  and  _181
REMARK   71  A    between atoms: _180  and  _183
REMARK   72  A    between atoms: _183  and  _184
REMARK   73  A    between atoms: _189  and  _190
REMARK   74  A    between atoms: _194  and  _197
REMARK   75  A    between atoms: _197  and  _198
REMARK   76  A    between atoms: _198  and  _240
REMARK   77  A    between atoms: _206  and  _209
REMARK   78  A    between atoms: _209  and  _210
REMARK   79  A    between atoms: _218  and  _220
REMARK   80  A    between atoms: _220  and  _221
REMARK   81  A    between atoms: _220  and  _223
REMARK   82  A    between atoms: _223  and  _224
REMARK   83  A    between atoms: _227  and  _229
REMARK   84  A    between atoms: _229  and  _230
REMARK   85  A    between atoms: _229  and  _232
REMARK   86  A    between atoms: _234  and  _236
REMARK   87  A    between atoms: _236  and  _237
REMARK   88  A    between atoms: _236  and  _239
REMARK   89  A    between atoms: _239  and  _240
REMARK   90  A    between atoms: _241  and  _243
REMARK   91  A    between atoms: _243  and  _244
REMARK   92  A    between atoms: _243  and  _246
REMARK   93  A    between atoms: _246  and  _247
REMARK   94  A    between atoms: _247  and  _248
REMARK   95  A    between atoms: _251  and  _253
REMARK   96  A    between atoms: _253  and  _254
REMARK   97  A    between atoms: _253  and  _256
REMARK   98  A    between atoms: _256  and  _257
REMARK   99  A    between atoms: _262  and  _264
REMARK  100  A    between atoms: _264  and  _265
REMARK  101  A    between atoms: _264  and  _267
REMARK  102  A    between atoms: _267  and  _268
REMARK  103  A    between atoms: _271  and  _273
REMARK  104  A    between atoms: _273  and  _274
REMARK  105  A    between atoms: _273  and  _276
REMARK  106  A    between atoms: _276  and  _277
REMARK  107  A    between atoms: _282  and  _283
REMARK  108  A    between atoms: _285  and  _287
REMARK  109  A    between atoms: _287  and  _288
REMARK  110  A    between atoms: _287  and  _290
REMARK  111  A    between atoms: _290  and  _291
REMARK  112  A    between atoms: _296  and  _298
REMARK  113  A    between atoms: _298  and  _299
REMARK  114  A    between atoms: _298  and  _301
REMARK  115  A    between atoms: _301  and  _302
REMARK  116  A    between atoms: _307  and  _308
REMARK  117  A    between atoms: _310  and  _312
REMARK  118  A    between atoms: _312  and  _313
REMARK  119  A    between atoms: _312  and  _315
REMARK  120  A    between atoms: _315  and  _316
REMARK  121  A    between atoms: _319  and  _321
REMARK  122  A    between atoms: _321  and  _322
REMARK  123  A    between atoms: _321  and  _324
REMARK  124  A    between atoms: _324  and  _325
REMARK  125  A    between atoms: _328  and  _330
REMARK  126  A    between atoms: _330  and  _331
REMARK  127  A    between atoms: _334  and  _336
REMARK  128  A    between atoms: _336  and  _337
REMARK  129  A    between atoms: _336  and  _339
REMARK  130  A    between atoms: _339  and  _340
REMARK  131  A    between atoms: _346  and  _348
REMARK  132  A    between atoms: _348  and  _349
REMARK  133  A    between atoms: _348  and  _351
REMARK  134  A    between atoms: _351  and  _352
REMARK  135  A    between atoms: _352  and  _353
REMARK  136  A    between atoms: _353  and  _354
REMARK  137  A    between atoms: _354  and  _355
REMARK                            x       y       z     vdW  Elec       q    Type
REMARK                         _______ _______ _______ _____ _____    ______ ____
ROOT
ATOM      1  O   HOH     1     -28.667  15.948 -11.119  0.00  0.00    +0.000 OA
ENDROOT
TORSDOF 0
