REMARK  Name = ../refined-set-2016/3t01/3t01_pocket.pdb
REMARK  130 active torsions:
REMARK  status: ('A' for Active; 'I' for Inactive)
REMARK    1  A    between atoms: _1  and  _3
REMARK    2  A    between atoms: _3  and  _4
REMARK    3  A    between atoms: _3  and  _6
REMARK    4  A    between atoms: _6  and  _7
REMARK    5  A    between atoms: _7  and  _8
REMARK    6  A    between atoms: _8  and  ZN_328
REMARK    7  A    between atoms: _10  and  _12
REMARK    8  A    between atoms: _12  and  _13
REMARK    9  A    between atoms: _16  and  _17
REMARK   10  A    between atoms: _22  and  _24
REMARK   11  A    between atoms: _24  and  _25
REMARK   12  A    between atoms: _24  and  _27
REMARK   13  A    between atoms: _27  and  _28
REMARK   14  A    between atoms: _30  and  _32
REMARK   15  A    between atoms: _32  and  _33
REMARK   16  A    between atoms: _32  and  _35
REMARK   17  A    between atoms: _35  and  _36
REMARK   18  A    between atoms: _42  and  _44
REMARK   19  A    between atoms: _44  and  _45
REMARK   20  A    between atoms: _44  and  _47
REMARK   21  A    between atoms: _47  and  _48
REMARK   22  A    between atoms: _51  and  _53
REMARK   23  A    between atoms: _53  and  _54
REMARK   24  A    between atoms: _53  and  _56
REMARK   25  A    between atoms: _56  and  _57
REMARK   26  A    between atoms: _63  and  _64
REMARK   27  A    between atoms: _69  and  _71
REMARK   28  A    between atoms: _71  and  _72
REMARK   29  A    between atoms: _71  and  _74
REMARK   30  A    between atoms: _74  and  _75
REMARK   31  A    between atoms: _80  and  _82
REMARK   32  A    between atoms: _82  and  _83
REMARK   33  A    between atoms: _82  and  _85
REMARK   34  A    between atoms: _85  and  _86
REMARK   35  A    between atoms: _91  and  _93
REMARK   36  A    between atoms: _93  and  _94
REMARK   37  A    between atoms: _96  and  _98
REMARK   38  A    between atoms: _98  and  _99
REMARK   39  A    between atoms: _98  and  _101
REMARK   40  A    between atoms: _101  and  _102
REMARK   41  A    between atoms: _107  and  _109
REMARK   42  A    between atoms: _109  and  _110
REMARK   43  A    between atoms: _109  and  _112
REMARK   44  A    between atoms: _112  and  _113
REMARK   45  A    between atoms: _113  and  _114
REMARK   46  A    between atoms: _114  and  _115
REMARK   47  A    between atoms: _115  and  _116
REMARK   48  A    between atoms: _120  and  _122
REMARK   49  A    between atoms: _122  and  _123
REMARK   50  A    between atoms: _122  and  _125
REMARK   51  A    between atoms: _125  and  _126
REMARK   52  A    between atoms: _126  and  _127
REMARK   53  A    between atoms: _127  and  _128
REMARK   54  A    between atoms: _128  and  _129
REMARK   55  A    between atoms: _133  and  _135
REMARK   56  A    between atoms: _135  and  _136
REMARK   57  A    between atoms: _135  and  _138
REMARK   58  A    between atoms: _138  and  _139
REMARK   59  A    between atoms: _144  and  _145
REMARK   60  A    between atoms: _147  and  _149
REMARK   61  A    between atoms: _149  and  _150
REMARK   62  A    between atoms: _149  and  _152
REMARK   63  A    between atoms: _152  and  _153
REMARK   64  A    between atoms: _156  and  _158
REMARK   65  A    between atoms: _158  and  _159
REMARK   66  A    between atoms: _158  and  _161
REMARK   67  A    between atoms: _161  and  _162
REMARK   68  A    between atoms: _165  and  _167
REMARK   69  A    between atoms: _167  and  _168
REMARK   70  A    between atoms: _167  and  _170
REMARK   71  A    between atoms: _170  and  _171
REMARK   72  A    between atoms: _171  and  _173
REMARK   73  A    between atoms: _173  and  ZN_329
REMARK   74  A    between atoms: _174  and  _176
REMARK   75  A    between atoms: _176  and  _177
REMARK   76  A    between atoms: _176  and  _179
REMARK   77  A    between atoms: _179  and  _180
REMARK   78  A    between atoms: _185  and  _186
REMARK   79  A    between atoms: _188  and  _190
REMARK   80  A    between atoms: _190  and  _191
REMARK   81  A    between atoms: _190  and  _193
REMARK   82  A    between atoms: _193  and  _194
REMARK   83  A    between atoms: _198  and  ZN_329
REMARK   84  A    between atoms: _199  and  _201
REMARK   85  A    between atoms: _210  and  _211
REMARK   86  A    between atoms: _219  and  _221
REMARK   87  A    between atoms: _221  and  _222
REMARK   88  A    between atoms: _221  and  _224
REMARK   89  A    between atoms: _224  and  _225
REMARK   90  A    between atoms: _225  and  _226
REMARK   91  A    between atoms: _229  and  _230
REMARK   92  A    between atoms: _235  and  _237
REMARK   93  A    between atoms: _237  and  _238
REMARK   94  A    between atoms: _237  and  _240
REMARK   95  A    between atoms: _240  and  _241
REMARK   96  A    between atoms: _244  and  _246
REMARK   97  A    between atoms: _246  and  _247
REMARK   98  A    between atoms: _246  and  _249
REMARK   99  A    between atoms: _249  and  _250
REMARK  100  A    between atoms: _253  and  _255
REMARK  101  A    between atoms: _255  and  _256
REMARK  102  A    between atoms: _255  and  _258
REMARK  103  A    between atoms: _258  and  _259
REMARK  104  A    between atoms: _262  and  _264
REMARK  105  A    between atoms: _264  and  _265
REMARK  106  A    between atoms: _267  and  _269
REMARK  107  A    between atoms: _269  and  _270
REMARK  108  A    between atoms: _273  and  _275
REMARK  109  A    between atoms: _275  and  _276
REMARK  110  A    between atoms: _275  and  _278
REMARK  111  A    between atoms: _278  and  _279
REMARK  112  A    between atoms: _282  and  _284
REMARK  113  A    between atoms: _284  and  _285
REMARK  114  A    between atoms: _287  and  _289
REMARK  115  A    between atoms: _289  and  _290
REMARK  116  A    between atoms: _289  and  _292
REMARK  117  A    between atoms: _292  and  _293
REMARK  118  A    between atoms: _293  and  _294
REMARK  119  A    between atoms: _294  and  _295
REMARK  120  A    between atoms: _304  and  _306
REMARK  121  A    between atoms: _306  and  _307
REMARK  122  A    between atoms: _306  and  _309
REMARK  123  A    between atoms: _309  and  _310
REMARK  124  A    between atoms: _312  and  _314
REMARK  125  A    between atoms: _314  and  _315
REMARK  126  A    between atoms: _314  and  _317
REMARK  127  A    between atoms: _317  and  _318
REMARK  128  A    between atoms: _322  and  ZN_329
REMARK  129  A    between atoms: _323  and  _325
REMARK  130  A    between atoms: _325  and  _326
REMARK                            x       y       z     vdW  Elec       q    Type
REMARK                         _______ _______ _______ _____ _____    ______ ____
ROOT
ATOM      1 ZN   UNK A   1      -0.649  30.103  25.390  0.00  0.00    +0.000 Zn
ATOM      2  O   UNK A   1      -0.709  30.783  27.317  0.00  0.00    +0.000 OA
ATOM      3  C   UNK A   1      -1.266  30.117  28.214  0.00  0.00    +0.000 C 
ATOM      4  C   UNK A   1      -1.838  30.897  29.393  0.00  0.00    +0.000 C 
ATOM      5  C   UNK A   1      -2.794  30.074  30.269  0.00  0.00    +0.000 C 
ATOM      6  C   UNK A   1      -4.117  29.769  29.556  0.00  0.00    +0.000 C 
ATOM      7  O   UNK A   1      -5.014  30.604  29.534  0.00  0.00    +0.000 OA
ATOM      8  N   UNK A   2      -4.223  28.564  29.004  0.00  0.00    +0.000 N 
ATOM      9  H   UNK A   2      -3.420  27.912  29.111  0.00  0.00    +0.000 HD
ATOM     10  C   UNK A   2      -5.392  28.088  28.255  0.00  0.00    +0.000 C 
ATOM     11  C   UNK A   2      -5.605  28.900  26.974  0.00  0.00    +0.000 C 
ATOM     12  C   UNK A   2      -4.393  28.945  26.099  0.00  0.00    +0.000 A 
ATOM     13  C   UNK A   2      -3.442  29.895  25.949  0.00  0.00    +0.000 A 
ATOM     14  N   UNK A   2      -4.023  27.896  25.284  0.00  0.00    +0.000 NA
ATOM     15  C   UNK A   2      -2.902  28.206  24.658  0.00  0.00    +0.000 A 
ATOM     16  O   UNK A   1      -1.367  28.872  28.161  0.00  0.00    +0.000 OA
ATOM     17  N   UNK A   2      -2.524  29.409  25.052  0.00  0.00    +0.000 N 
ENDROOT
BRANCH   5  18
ATOM     18  N   UNK A   1      -2.140  28.877  30.787  0.00  0.00    +0.000 NA
ATOM     19  H   UNK A   1      -1.316  28.487  30.286  0.00  0.00    +0.000 HD
ENDBRANCH   5  18
BRANCH  10  20
ATOM     20  C   UNK A   2      -5.146  26.637  27.885  0.00  0.00    +0.000 C 
ATOM     21  O   UNK A   2      -4.012  26.140  27.984  0.00  0.00    +0.000 OA
ENDBRANCH  10  20
BRANCH   1  22
ATOM     22  O   UNK A   1       0.549  28.593  25.529  0.00  0.00    +0.000 OA
BRANCH  22  23
ATOM     23  C   UNK A   1       1.651  28.841  26.060  0.00  0.00    +0.000 C 
ATOM     24  O   UNK A   1       2.255  29.925  25.907  0.00  0.00    +0.000 OA
BRANCH  23  25
ATOM     25  C   UNK A   1       2.300  27.791  26.929  0.00  0.00    +0.000 C 
BRANCH  25  26
ATOM     26  C   UNK A   1       1.307  27.069  27.844  0.00  0.00    +0.000 C 
BRANCH  26  27
ATOM     27  C   UNK A   1       0.536  25.992  27.079  0.00  0.00    +0.000 C 
ATOM     28  N   UNK A   2      -0.767  26.210  26.924  0.00  0.00    +0.000 N 
ATOM     29  H   UNK A   2      -1.190  27.057  27.354  0.00  0.00    +0.000 HD
ATOM     30  O   UNK A   1       1.105  24.978  26.659  0.00  0.00    +0.000 OA
BRANCH  28  31
ATOM     31  C   UNK A   2      -1.624  25.297  26.168  0.00  0.00    +0.000 C 
BRANCH  31  32
ATOM     32  C   UNK A   2      -1.854  23.933  26.788  0.00  0.00    +0.000 C 
ATOM     33  O   UNK A   2      -2.266  23.004  26.094  0.00  0.00    +0.000 OA
ENDBRANCH  31  32
ENDBRANCH  28  31
ENDBRANCH  26  27
BRANCH  26  34
ATOM     34  N   UNK A   1       2.030  26.493  28.969  0.00  0.00    +0.000 NA
ATOM     35  H   UNK A   1       3.053  26.666  29.047  0.00  0.00    +0.000 HD
ENDBRANCH  26  34
ENDBRANCH  25  26
ENDBRANCH  23  25
ENDBRANCH  22  23
ENDBRANCH   1  22
TORSDOF 10
REMARK  Name = ../refined-set-2016/3t01/3t01_pocket.pdb
REMARK  130 active torsions:
REMARK  status: ('A' for Active; 'I' for Inactive)
REMARK    1  A    between atoms: _1  and  _3
REMARK    2  A    between atoms: _3  and  _4
REMARK    3  A    between atoms: _3  and  _6
REMARK    4  A    between atoms: _6  and  _7
REMARK    5  A    between atoms: _7  and  _8
REMARK    6  A    between atoms: _8  and  ZN_328
REMARK    7  A    between atoms: _10  and  _12
REMARK    8  A    between atoms: _12  and  _13
REMARK    9  A    between atoms: _16  and  _17
REMARK   10  A    between atoms: _22  and  _24
REMARK   11  A    between atoms: _24  and  _25
REMARK   12  A    between atoms: _24  and  _27
REMARK   13  A    between atoms: _27  and  _28
REMARK   14  A    between atoms: _30  and  _32
REMARK   15  A    between atoms: _32  and  _33
REMARK   16  A    between atoms: _32  and  _35
REMARK   17  A    between atoms: _35  and  _36
REMARK   18  A    between atoms: _42  and  _44
REMARK   19  A    between atoms: _44  and  _45
REMARK   20  A    between atoms: _44  and  _47
REMARK   21  A    between atoms: _47  and  _48
REMARK   22  A    between atoms: _51  and  _53
REMARK   23  A    between atoms: _53  and  _54
REMARK   24  A    between atoms: _53  and  _56
REMARK   25  A    between atoms: _56  and  _57
REMARK   26  A    between atoms: _63  and  _64
REMARK   27  A    between atoms: _69  and  _71
REMARK   28  A    between atoms: _71  and  _72
REMARK   29  A    between atoms: _71  and  _74
REMARK   30  A    between atoms: _74  and  _75
REMARK   31  A    between atoms: _80  and  _82
REMARK   32  A    between atoms: _82  and  _83
REMARK   33  A    between atoms: _82  and  _85
REMARK   34  A    between atoms: _85  and  _86
REMARK   35  A    between atoms: _91  and  _93
REMARK   36  A    between atoms: _93  and  _94
REMARK   37  A    between atoms: _96  and  _98
REMARK   38  A    between atoms: _98  and  _99
REMARK   39  A    between atoms: _98  and  _101
REMARK   40  A    between atoms: _101  and  _102
REMARK   41  A    between atoms: _107  and  _109
REMARK   42  A    between atoms: _109  and  _110
REMARK   43  A    between atoms: _109  and  _112
REMARK   44  A    between atoms: _112  and  _113
REMARK   45  A    between atoms: _113  and  _114
REMARK   46  A    between atoms: _114  and  _115
REMARK   47  A    between atoms: _115  and  _116
REMARK   48  A    between atoms: _120  and  _122
REMARK   49  A    between atoms: _122  and  _123
REMARK   50  A    between atoms: _122  and  _125
REMARK   51  A    between atoms: _125  and  _126
REMARK   52  A    between atoms: _126  and  _127
REMARK   53  A    between atoms: _127  and  _128
REMARK   54  A    between atoms: _128  and  _129
REMARK   55  A    between atoms: _133  and  _135
REMARK   56  A    between atoms: _135  and  _136
REMARK   57  A    between atoms: _135  and  _138
REMARK   58  A    between atoms: _138  and  _139
REMARK   59  A    between atoms: _144  and  _145
REMARK   60  A    between atoms: _147  and  _149
REMARK   61  A    between atoms: _149  and  _150
REMARK   62  A    between atoms: _149  and  _152
REMARK   63  A    between atoms: _152  and  _153
REMARK   64  A    between atoms: _156  and  _158
REMARK   65  A    between atoms: _158  and  _159
REMARK   66  A    between atoms: _158  and  _161
REMARK   67  A    between atoms: _161  and  _162
REMARK   68  A    between atoms: _165  and  _167
REMARK   69  A    between atoms: _167  and  _168
REMARK   70  A    between atoms: _167  and  _170
REMARK   71  A    between atoms: _170  and  _171
REMARK   72  A    between atoms: _171  and  _173
REMARK   73  A    between atoms: _173  and  ZN_329
REMARK   74  A    between atoms: _174  and  _176
REMARK   75  A    between atoms: _176  and  _177
REMARK   76  A    between atoms: _176  and  _179
REMARK   77  A    between atoms: _179  and  _180
REMARK   78  A    between atoms: _185  and  _186
REMARK   79  A    between atoms: _188  and  _190
REMARK   80  A    between atoms: _190  and  _191
REMARK   81  A    between atoms: _190  and  _193
REMARK   82  A    between atoms: _193  and  _194
REMARK   83  A    between atoms: _198  and  ZN_329
REMARK   84  A    between atoms: _199  and  _201
REMARK   85  A    between atoms: _210  and  _211
REMARK   86  A    between atoms: _219  and  _221
REMARK   87  A    between atoms: _221  and  _222
REMARK   88  A    between atoms: _221  and  _224
REMARK   89  A    between atoms: _224  and  _225
REMARK   90  A    between atoms: _225  and  _226
REMARK   91  A    between atoms: _229  and  _230
REMARK   92  A    between atoms: _235  and  _237
REMARK   93  A    between atoms: _237  and  _238
REMARK   94  A    between atoms: _237  and  _240
REMARK   95  A    between atoms: _240  and  _241
REMARK   96  A    between atoms: _244  and  _246
REMARK   97  A    between atoms: _246  and  _247
REMARK   98  A    between atoms: _246  and  _249
REMARK   99  A    between atoms: _249  and  _250
REMARK  100  A    between atoms: _253  and  _255
REMARK  101  A    between atoms: _255  and  _256
REMARK  102  A    between atoms: _255  and  _258
REMARK  103  A    between atoms: _258  and  _259
REMARK  104  A    between atoms: _262  and  _264
REMARK  105  A    between atoms: _264  and  _265
REMARK  106  A    between atoms: _267  and  _269
REMARK  107  A    between atoms: _269  and  _270
REMARK  108  A    between atoms: _273  and  _275
REMARK  109  A    between atoms: _275  and  _276
REMARK  110  A    between atoms: _275  and  _278
REMARK  111  A    between atoms: _278  and  _279
REMARK  112  A    between atoms: _282  and  _284
REMARK  113  A    between atoms: _284  and  _285
REMARK  114  A    between atoms: _287  and  _289
REMARK  115  A    between atoms: _289  and  _290
REMARK  116  A    between atoms: _289  and  _292
REMARK  117  A    between atoms: _292  and  _293
REMARK  118  A    between atoms: _293  and  _294
REMARK  119  A    between atoms: _294  and  _295
REMARK  120  A    between atoms: _304  and  _306
REMARK  121  A    between atoms: _306  and  _307
REMARK  122  A    between atoms: _306  and  _309
REMARK  123  A    between atoms: _309  and  _310
REMARK  124  A    between atoms: _312  and  _314
REMARK  125  A    between atoms: _314  and  _315
REMARK  126  A    between atoms: _314  and  _317
REMARK  127  A    between atoms: _317  and  _318
REMARK  128  A    between atoms: _322  and  ZN_329
REMARK  129  A    between atoms: _323  and  _325
REMARK  130  A    between atoms: _325  and  _326
REMARK                            x       y       z     vdW  Elec       q    Type
REMARK                         _______ _______ _______ _____ _____    ______ ____
ROOT
ATOM      1  C   THR A   4      -1.215  34.778  26.272  0.00  0.00    +0.243 C 
ATOM      2  O   THR A   4      -1.000  34.793  27.487  0.00  0.00    -0.273 OA
ATOM      3  N   ASN A   5      -1.221  35.878  25.524  0.00  0.00    -0.297 N 
ATOM      4  H   ASN A   5      -1.470  35.821  24.516  0.00  0.00    +0.150 HD
ENDROOT
BRANCH   1   5
ATOM      5  CA  THR A   4      -1.478  33.457  25.564  0.00  0.00    +0.176 C 
BRANCH   5   8
ATOM      6  C   PHE A   3      -3.913  33.499  25.290  0.00  0.00    +0.241 C 
ATOM      7  O   PHE A   3      -4.115  33.791  26.469  0.00  0.00    -0.273 OA
ATOM      8  N   THR A   4      -2.698  33.406  24.761  0.00  0.00    -0.295 N 
ATOM      9  H   THR A   4      -2.611  33.292  23.731  0.00  0.00    +0.150 HD
BRANCH   6  10
ATOM     10  CA  PHE A   3      -5.079  33.233  24.334  0.00  0.00    +0.153 C 
BRANCH  10  12
ATOM     11  C   SER A   2      -6.990  31.881  25.117  0.00  0.00    +0.243 C 
ATOM     12  N   PHE A   3      -6.319  33.034  25.081  0.00  0.00    -0.297 N 
ATOM     13  H   PHE A   3      -6.702  33.839  25.617  0.00  0.00    +0.150 HD
ATOM     14  O   SER A   2      -6.645  30.865  24.511  0.00  0.00    -0.273 OA
BRANCH  11  15
ATOM     15  CA  SER A   2      -8.243  31.904  25.988  0.00  0.00    +0.178 C 
BRANCH  15  18
ATOM     16  C   PRO A   1      -9.109  34.166  25.677  0.00  0.00    +0.239 C 
ATOM     17  O   PRO A   1      -8.202  34.682  26.349  0.00  0.00    -0.274 OA
ATOM     18  N   SER A   2      -9.216  32.858  25.455  0.00  0.00    -0.295 N 
ATOM     19  H   SER A   2     -10.013  32.505  24.887  0.00  0.00    +0.150 HD
BRANCH  16  24
ATOM     20  N   PRO A   1     -10.637  36.121  25.922  0.00  0.00    -0.210 NA
ATOM     21  CD  PRO A   1     -10.116  37.429  25.473  0.00  0.00    +0.089 C 
ATOM     22  CG  PRO A   1      -9.166  37.066  24.373  0.00  0.00    +0.021 C 
ATOM     23  CB  PRO A   1      -9.659  35.775  23.827  0.00  0.00    +0.028 C 
ATOM     24  CA  PRO A   1     -10.198  35.034  25.049  0.00  0.00    +0.149 C 
ENDBRANCH  16  24
ENDBRANCH  15  18
BRANCH  15  25
ATOM     25  CB  SER A   2      -8.877  30.516  26.186  0.00  0.00    +0.166 C 
BRANCH  25  26
ATOM     26  OG  SER A   2      -9.464  30.021  24.991  0.00  0.00    -0.380 OA
ATOM     27  H   SER A   2     -10.172  30.644  24.690  0.00  0.00    +0.211 HD
ENDBRANCH  25  26
ENDBRANCH  15  25
ENDBRANCH  11  15
ENDBRANCH  10  12
BRANCH  10  28
ATOM     28  CB  PHE A   3      -5.205  34.394  23.338  0.00  0.00    +0.055 C 
BRANCH  28  29
ATOM     29  CG  PHE A   3      -6.150  34.132  22.184  0.00  0.00    -0.020 A 
ATOM     30  CD2 PHE A   3      -7.001  35.140  21.750  0.00  0.00    -0.004 A 
ATOM     31  CE2 PHE A   3      -7.878  34.936  20.678  0.00  0.00    -0.000 A 
ATOM     32  CZ  PHE A   3      -7.895  33.706  20.027  0.00  0.00    -0.000 A 
ATOM     33  CE1 PHE A   3      -7.041  32.691  20.440  0.00  0.00    -0.000 A 
ATOM     34  CD1 PHE A   3      -6.162  32.910  21.512  0.00  0.00    -0.004 A 
ENDBRANCH  28  29
ENDBRANCH  10  28
ENDBRANCH   6  10
ENDBRANCH   5   8
BRANCH   5  35
ATOM     35  CB  THR A   4      -0.262  33.070  24.711  0.00  0.00    +0.137 C 
ATOM     36  CG2 THR A   4       1.047  33.179  25.506  0.00  0.00    +0.034 C 
BRANCH  35  37
ATOM     37  OG1 THR A   4      -0.437  31.722  24.263  0.00  0.00    -0.382 OA
ATOM     38  HG1 THR A   4       0.340  31.456  23.710  0.00  0.00    +0.210 HD
ENDBRANCH  35  37
ENDBRANCH   5  35
ENDBRANCH   1   5
BRANCH   3  39
ATOM     39  CA  ASN A   5      -0.877  37.170  26.122  0.00  0.00    +0.158 C 
BRANCH  39  40
ATOM     40  C   ASN A   5      -1.863  37.626  27.198  0.00  0.00    +0.244 C 
ATOM     41  O   ASN A   5      -1.434  37.961  28.299  0.00  0.00    -0.273 OA
ATOM     42  N   PRO A   6      -3.181  37.616  26.903  0.00  0.00    -0.272 N 
ATOM     43  CA  PRO A   6      -4.116  38.066  27.941  0.00  0.00    +0.152 C 
ATOM     44  CB  PRO A   6      -5.493  37.913  27.282  0.00  0.00    +0.031 C 
ATOM     45  CG  PRO A   6      -5.230  37.869  25.830  0.00  0.00    +0.024 C 
ATOM     46  CD  PRO A   6      -3.878  37.271  25.647  0.00  0.00    +0.094 C 
BRANCH  43  47
ATOM     47  C   PRO A   6      -4.042  37.211  29.203  0.00  0.00    +0.241 C 
ATOM     48  O   PRO A   6      -4.128  37.730  30.315  0.00  0.00    -0.273 OA
ATOM     49  N   ASN A   7      -3.849  35.911  29.037  0.00  0.00    -0.297 N 
ATOM     50  H   ASN A   7      -3.743  35.515  28.081  0.00  0.00    +0.150 HD
BRANCH  49  51
ATOM     51  CA  ASN A   7      -3.787  35.043  30.198  0.00  0.00    +0.158 C 
BRANCH  51  52
ATOM     52  C   ASN A   7      -2.485  35.130  30.982  0.00  0.00    +0.241 C 
ATOM     53  O   ASN A   7      -2.511  35.151  32.215  0.00  0.00    -0.273 OA
ATOM     54  N   ASN A   8      -1.358  35.229  30.283  0.00  0.00    -0.298 N 
ATOM     55  H   ASN A   8      -1.376  35.155  29.246  0.00  0.00    +0.150 HD
BRANCH  54  56
ATOM     56  CA  ASN A   8      -0.094  35.443  30.984  0.00  0.00    +0.146 C 
BRANCH  56  57
ATOM     57  C   ASN A   8      -0.090  36.730  31.789  0.00  0.00    +0.227 C 
ATOM     58  O   ASN A   8       0.381  36.746  32.927  0.00  0.00    -0.286 OA
ENDBRANCH  56  57
BRANCH  56  59
ATOM     59  CB  ASN A   8       1.087  35.415  30.026  0.00  0.00    +0.112 C 
BRANCH  59  60
ATOM     60  CG  ASN A   8       1.610  34.015  29.807  0.00  0.00    +0.222 C 
ATOM     61  ND2 ASN A   8       2.519  33.596  30.664  0.00  0.00    -0.329 N 
ATOM     62 HD21 ASN A   8       2.844  34.225  31.426  0.00  0.00    +0.145 HD
ATOM     63 HD22 ASN A   8       2.912  32.637  30.578  0.00  0.00    +0.145 HD
ATOM     64  OD1 ASN A   8       1.188  33.308  28.881  0.00  0.00    -0.275 OA
ENDBRANCH  59  60
ENDBRANCH  56  59
ENDBRANCH  54  56
ENDBRANCH  51  52
BRANCH  51  65
ATOM     65  CB  ASN A   7      -4.128  33.618  29.808  0.00  0.00    +0.114 C 
BRANCH  65  66
ATOM     66  CG  ASN A   7      -5.616  33.418  29.680  0.00  0.00    +0.222 C 
ATOM     67  ND2 ASN A   7      -6.259  33.210  30.805  0.00  0.00    -0.329 N 
ATOM     68 HD21 ASN A   7      -5.734  33.150  31.701  0.00  0.00    +0.145 HD
ATOM     69 HD22 ASN A   7      -7.294  33.105  30.801  0.00  0.00    +0.145 HD
ATOM     70  OD1 ASN A   7      -6.191  33.499  28.581  0.00  0.00    -0.275 OA
ENDBRANCH  65  66
ENDBRANCH  51  65
ENDBRANCH  49  51
ENDBRANCH  43  47
ENDBRANCH  39  40
BRANCH  39  71
ATOM     71  CB  ASN A   5      -0.660  38.264  25.067  0.00  0.00    +0.114 C 
BRANCH  71  72
ATOM     72  CG  ASN A   5       0.584  38.037  24.229  0.00  0.00    +0.222 C 
ATOM     73  OD1 ASN A   5       0.939  36.904  23.912  0.00  0.00    -0.275 OA
ATOM     74  ND2 ASN A   5       1.246  39.128  23.849  0.00  0.00    -0.329 N 
ATOM     75 HD21 ASN A   5       0.910  40.068  24.140  0.00  0.00    +0.145 HD
ATOM     76 HD22 ASN A   5       2.099  39.040  23.261  0.00  0.00    +0.145 HD
ENDBRANCH  71  72
ENDBRANCH  39  71
ENDBRANCH   3  39
TORSDOF 26
REMARK  Name = ../refined-set-2016/3t01/3t01_pocket.pdb
REMARK  130 active torsions:
REMARK  status: ('A' for Active; 'I' for Inactive)
REMARK    1  A    between atoms: _1  and  _3
REMARK    2  A    between atoms: _3  and  _4
REMARK    3  A    between atoms: _3  and  _6
REMARK    4  A    between atoms: _6  and  _7
REMARK    5  A    between atoms: _7  and  _8
REMARK    6  A    between atoms: _8  and  ZN_328
REMARK    7  A    between atoms: _10  and  _12
REMARK    8  A    between atoms: _12  and  _13
REMARK    9  A    between atoms: _16  and  _17
REMARK   10  A    between atoms: _22  and  _24
REMARK   11  A    between atoms: _24  and  _25
REMARK   12  A    between atoms: _24  and  _27
REMARK   13  A    between atoms: _27  and  _28
REMARK   14  A    between atoms: _30  and  _32
REMARK   15  A    between atoms: _32  and  _33
REMARK   16  A    between atoms: _32  and  _35
REMARK   17  A    between atoms: _35  and  _36
REMARK   18  A    between atoms: _42  and  _44
REMARK   19  A    between atoms: _44  and  _45
REMARK   20  A    between atoms: _44  and  _47
REMARK   21  A    between atoms: _47  and  _48
REMARK   22  A    between atoms: _51  and  _53
REMARK   23  A    between atoms: _53  and  _54
REMARK   24  A    between atoms: _53  and  _56
REMARK   25  A    between atoms: _56  and  _57
REMARK   26  A    between atoms: _63  and  _64
REMARK   27  A    between atoms: _69  and  _71
REMARK   28  A    between atoms: _71  and  _72
REMARK   29  A    between atoms: _71  and  _74
REMARK   30  A    between atoms: _74  and  _75
REMARK   31  A    between atoms: _80  and  _82
REMARK   32  A    between atoms: _82  and  _83
REMARK   33  A    between atoms: _82  and  _85
REMARK   34  A    between atoms: _85  and  _86
REMARK   35  A    between atoms: _91  and  _93
REMARK   36  A    between atoms: _93  and  _94
REMARK   37  A    between atoms: _96  and  _98
REMARK   38  A    between atoms: _98  and  _99
REMARK   39  A    between atoms: _98  and  _101
REMARK   40  A    between atoms: _101  and  _102
REMARK   41  A    between atoms: _107  and  _109
REMARK   42  A    between atoms: _109  and  _110
REMARK   43  A    between atoms: _109  and  _112
REMARK   44  A    between atoms: _112  and  _113
REMARK   45  A    between atoms: _113  and  _114
REMARK   46  A    between atoms: _114  and  _115
REMARK   47  A    between atoms: _115  and  _116
REMARK   48  A    between atoms: _120  and  _122
REMARK   49  A    between atoms: _122  and  _123
REMARK   50  A    between atoms: _122  and  _125
REMARK   51  A    between atoms: _125  and  _126
REMARK   52  A    between atoms: _126  and  _127
REMARK   53  A    between atoms: _127  and  _128
REMARK   54  A    between atoms: _128  and  _129
REMARK   55  A    between atoms: _133  and  _135
REMARK   56  A    between atoms: _135  and  _136
REMARK   57  A    between atoms: _135  and  _138
REMARK   58  A    between atoms: _138  and  _139
REMARK   59  A    between atoms: _144  and  _145
REMARK   60  A    between atoms: _147  and  _149
REMARK   61  A    between atoms: _149  and  _150
REMARK   62  A    between atoms: _149  and  _152
REMARK   63  A    between atoms: _152  and  _153
REMARK   64  A    between atoms: _156  and  _158
REMARK   65  A    between atoms: _158  and  _159
REMARK   66  A    between atoms: _158  and  _161
REMARK   67  A    between atoms: _161  and  _162
REMARK   68  A    between atoms: _165  and  _167
REMARK   69  A    between atoms: _167  and  _168
REMARK   70  A    between atoms: _167  and  _170
REMARK   71  A    between atoms: _170  and  _171
REMARK   72  A    between atoms: _171  and  _173
REMARK   73  A    between atoms: _173  and  ZN_329
REMARK   74  A    between atoms: _174  and  _176
REMARK   75  A    between atoms: _176  and  _177
REMARK   76  A    between atoms: _176  and  _179
REMARK   77  A    between atoms: _179  and  _180
REMARK   78  A    between atoms: _185  and  _186
REMARK   79  A    between atoms: _188  and  _190
REMARK   80  A    between atoms: _190  and  _191
REMARK   81  A    between atoms: _190  and  _193
REMARK   82  A    between atoms: _193  and  _194
REMARK   83  A    between atoms: _198  and  ZN_329
REMARK   84  A    between atoms: _199  and  _201
REMARK   85  A    between atoms: _210  and  _211
REMARK   86  A    between atoms: _219  and  _221
REMARK   87  A    between atoms: _221  and  _222
REMARK   88  A    between atoms: _221  and  _224
REMARK   89  A    between atoms: _224  and  _225
REMARK   90  A    between atoms: _225  and  _226
REMARK   91  A    between atoms: _229  and  _230
REMARK   92  A    between atoms: _235  and  _237
REMARK   93  A    between atoms: _237  and  _238
REMARK   94  A    between atoms: _237  and  _240
REMARK   95  A    between atoms: _240  and  _241
REMARK   96  A    between atoms: _244  and  _246
REMARK   97  A    between atoms: _246  and  _247
REMARK   98  A    between atoms: _246  and  _249
REMARK   99  A    between atoms: _249  and  _250
REMARK  100  A    between atoms: _253  and  _255
REMARK  101  A    between atoms: _255  and  _256
REMARK  102  A    between atoms: _255  and  _258
REMARK  103  A    between atoms: _258  and  _259
REMARK  104  A    between atoms: _262  and  _264
REMARK  105  A    between atoms: _264  and  _265
REMARK  106  A    between atoms: _267  and  _269
REMARK  107  A    between atoms: _269  and  _270
REMARK  108  A    between atoms: _273  and  _275
REMARK  109  A    between atoms: _275  and  _276
REMARK  110  A    between atoms: _275  and  _278
REMARK  111  A    between atoms: _278  and  _279
REMARK  112  A    between atoms: _282  and  _284
REMARK  113  A    between atoms: _284  and  _285
REMARK  114  A    between atoms: _287  and  _289
REMARK  115  A    between atoms: _289  and  _290
REMARK  116  A    between atoms: _289  and  _292
REMARK  117  A    between atoms: _292  and  _293
REMARK  118  A    between atoms: _293  and  _294
REMARK  119  A    between atoms: _294  and  _295
REMARK  120  A    between atoms: _304  and  _306
REMARK  121  A    between atoms: _306  and  _307
REMARK  122  A    between atoms: _306  and  _309
REMARK  123  A    between atoms: _309  and  _310
REMARK  124  A    between atoms: _312  and  _314
REMARK  125  A    between atoms: _314  and  _315
REMARK  126  A    between atoms: _314  and  _317
REMARK  127  A    between atoms: _317  and  _318
REMARK  128  A    between atoms: _322  and  ZN_329
REMARK  129  A    between atoms: _323  and  _325
REMARK  130  A    between atoms: _325  and  _326
REMARK                            x       y       z     vdW  Elec       q    Type
REMARK                         _______ _______ _______ _____ _____    ______ ____
ROOT
ATOM      1  CA  ASN A   2      -1.903  40.740  20.595  0.00  0.00    +0.146 C 
ENDROOT
BRANCH   1   4
ATOM      2  C   GLY A   1      -3.701  40.951  22.221  0.00  0.00    +0.240 C 
ATOM      3  O   GLY A   1      -3.014  41.666  22.955  0.00  0.00    -0.274 OA
ATOM      4  N   ASN A   2      -3.261  40.468  21.063  0.00  0.00    -0.298 N 
ATOM      5  H   ASN A   2      -3.895  39.886  20.479  0.00  0.00    +0.150 HD
BRANCH   2   6
ATOM      6  CA  GLY A   1      -5.116  40.578  22.613  0.00  0.00    +0.169 C 
BRANCH   6   7
ATOM      7  N   GLY A   1      -5.478  41.195  23.883  0.00  0.00    -0.236 NA
ATOM      8  H   GLY A   1      -4.811  41.864  24.318  0.00  0.00    +0.142 HD
ENDBRANCH   6   7
ENDBRANCH   2   6
ENDBRANCH   1   4
BRANCH   1   9
ATOM      9  C   ASN A   2      -1.746  42.114  19.957  0.00  0.00    +0.227 C 
ATOM     10  O   ASN A   2      -0.639  42.656  19.902  0.00  0.00    -0.286 OA
ENDBRANCH   1   9
BRANCH   1  11
ATOM     11  CB  ASN A   2      -1.424  39.644  19.642  0.00  0.00    +0.112 C 
BRANCH  11  12
ATOM     12  CG  ASN A   2      -1.049  38.364  20.367  0.00  0.00    +0.222 C 
ATOM     13  OD1 ASN A   2      -1.114  38.288  21.592  0.00  0.00    -0.275 OA
ATOM     14  ND2 ASN A   2      -0.649  37.354  19.611  0.00  0.00    -0.329 N 
ATOM     15 HD21 ASN A   2      -0.375  36.452  20.051  0.00  0.00    +0.145 HD
ATOM     16 HD22 ASN A   2      -0.609  37.462  18.577  0.00  0.00    +0.145 HD
ENDBRANCH  11  12
ENDBRANCH   1  11
TORSDOF 6
REMARK  Name = ../refined-set-2016/3t01/3t01_pocket.pdb
REMARK  130 active torsions:
REMARK  status: ('A' for Active; 'I' for Inactive)
REMARK    1  A    between atoms: _1  and  _3
REMARK    2  A    between atoms: _3  and  _4
REMARK    3  A    between atoms: _3  and  _6
REMARK    4  A    between atoms: _6  and  _7
REMARK    5  A    between atoms: _7  and  _8
REMARK    6  A    between atoms: _8  and  ZN_328
REMARK    7  A    between atoms: _10  and  _12
REMARK    8  A    between atoms: _12  and  _13
REMARK    9  A    between atoms: _16  and  _17
REMARK   10  A    between atoms: _22  and  _24
REMARK   11  A    between atoms: _24  and  _25
REMARK   12  A    between atoms: _24  and  _27
REMARK   13  A    between atoms: _27  and  _28
REMARK   14  A    between atoms: _30  and  _32
REMARK   15  A    between atoms: _32  and  _33
REMARK   16  A    between atoms: _32  and  _35
REMARK   17  A    between atoms: _35  and  _36
REMARK   18  A    between atoms: _42  and  _44
REMARK   19  A    between atoms: _44  and  _45
REMARK   20  A    between atoms: _44  and  _47
REMARK   21  A    between atoms: _47  and  _48
REMARK   22  A    between atoms: _51  and  _53
REMARK   23  A    between atoms: _53  and  _54
REMARK   24  A    between atoms: _53  and  _56
REMARK   25  A    between atoms: _56  and  _57
REMARK   26  A    between atoms: _63  and  _64
REMARK   27  A    between atoms: _69  and  _71
REMARK   28  A    between atoms: _71  and  _72
REMARK   29  A    between atoms: _71  and  _74
REMARK   30  A    between atoms: _74  and  _75
REMARK   31  A    between atoms: _80  and  _82
REMARK   32  A    between atoms: _82  and  _83
REMARK   33  A    between atoms: _82  and  _85
REMARK   34  A    between atoms: _85  and  _86
REMARK   35  A    between atoms: _91  and  _93
REMARK   36  A    between atoms: _93  and  _94
REMARK   37  A    between atoms: _96  and  _98
REMARK   38  A    between atoms: _98  and  _99
REMARK   39  A    between atoms: _98  and  _101
REMARK   40  A    between atoms: _101  and  _102
REMARK   41  A    between atoms: _107  and  _109
REMARK   42  A    between atoms: _109  and  _110
REMARK   43  A    between atoms: _109  and  _112
REMARK   44  A    between atoms: _112  and  _113
REMARK   45  A    between atoms: _113  and  _114
REMARK   46  A    between atoms: _114  and  _115
REMARK   47  A    between atoms: _115  and  _116
REMARK   48  A    between atoms: _120  and  _122
REMARK   49  A    between atoms: _122  and  _123
REMARK   50  A    between atoms: _122  and  _125
REMARK   51  A    between atoms: _125  and  _126
REMARK   52  A    between atoms: _126  and  _127
REMARK   53  A    between atoms: _127  and  _128
REMARK   54  A    between atoms: _128  and  _129
REMARK   55  A    between atoms: _133  and  _135
REMARK   56  A    between atoms: _135  and  _136
REMARK   57  A    between atoms: _135  and  _138
REMARK   58  A    between atoms: _138  and  _139
REMARK   59  A    between atoms: _144  and  _145
REMARK   60  A    between atoms: _147  and  _149
REMARK   61  A    between atoms: _149  and  _150
REMARK   62  A    between atoms: _149  and  _152
REMARK   63  A    between atoms: _152  and  _153
REMARK   64  A    between atoms: _156  and  _158
REMARK   65  A    between atoms: _158  and  _159
REMARK   66  A    between atoms: _158  and  _161
REMARK   67  A    between atoms: _161  and  _162
REMARK   68  A    between atoms: _165  and  _167
REMARK   69  A    between atoms: _167  and  _168
REMARK   70  A    between atoms: _167  and  _170
REMARK   71  A    between atoms: _170  and  _171
REMARK   72  A    between atoms: _171  and  _173
REMARK   73  A    between atoms: _173  and  ZN_329
REMARK   74  A    between atoms: _174  and  _176
REMARK   75  A    between atoms: _176  and  _177
REMARK   76  A    between atoms: _176  and  _179
REMARK   77  A    between atoms: _179  and  _180
REMARK   78  A    between atoms: _185  and  _186
REMARK   79  A    between atoms: _188  and  _190
REMARK   80  A    between atoms: _190  and  _191
REMARK   81  A    between atoms: _190  and  _193
REMARK   82  A    between atoms: _193  and  _194
REMARK   83  A    between atoms: _198  and  ZN_329
REMARK   84  A    between atoms: _199  and  _201
REMARK   85  A    between atoms: _210  and  _211
REMARK   86  A    between atoms: _219  and  _221
REMARK   87  A    between atoms: _221  and  _222
REMARK   88  A    between atoms: _221  and  _224
REMARK   89  A    between atoms: _224  and  _225
REMARK   90  A    between atoms: _225  and  _226
REMARK   91  A    between atoms: _229  and  _230
REMARK   92  A    between atoms: _235  and  _237
REMARK   93  A    between atoms: _237  and  _238
REMARK   94  A    between atoms: _237  and  _240
REMARK   95  A    between atoms: _240  and  _241
REMARK   96  A    between atoms: _244  and  _246
REMARK   97  A    between atoms: _246  and  _247
REMARK   98  A    between atoms: _246  and  _249
REMARK   99  A    between atoms: _249  and  _250
REMARK  100  A    between atoms: _253  and  _255
REMARK  101  A    between atoms: _255  and  _256
REMARK  102  A    between atoms: _255  and  _258
REMARK  103  A    between atoms: _258  and  _259
REMARK  104  A    between atoms: _262  and  _264
REMARK  105  A    between atoms: _264  and  _265
REMARK  106  A    between atoms: _267  and  _269
REMARK  107  A    between atoms: _269  and  _270
REMARK  108  A    between atoms: _273  and  _275
REMARK  109  A    between atoms: _275  and  _276
REMARK  110  A    between atoms: _275  and  _278
REMARK  111  A    between atoms: _278  and  _279
REMARK  112  A    between atoms: _282  and  _284
REMARK  113  A    between atoms: _284  and  _285
REMARK  114  A    between atoms: _287  and  _289
REMARK  115  A    between atoms: _289  and  _290
REMARK  116  A    between atoms: _289  and  _292
REMARK  117  A    between atoms: _292  and  _293
REMARK  118  A    between atoms: _293  and  _294
REMARK  119  A    between atoms: _294  and  _295
REMARK  120  A    between atoms: _304  and  _306
REMARK  121  A    between atoms: _306  and  _307
REMARK  122  A    between atoms: _306  and  _309
REMARK  123  A    between atoms: _309  and  _310
REMARK  124  A    between atoms: _312  and  _314
REMARK  125  A    between atoms: _314  and  _315
REMARK  126  A    between atoms: _314  and  _317
REMARK  127  A    between atoms: _317  and  _318
REMARK  128  A    between atoms: _322  and  ZN_329
REMARK  129  A    between atoms: _323  and  _325
REMARK  130  A    between atoms: _325  and  _326
REMARK                            x       y       z     vdW  Elec       q    Type
REMARK                         _______ _______ _______ _____ _____    ______ ____
ROOT
ATOM      1  CG  LYS A   1       8.151  32.421  22.012  0.00  0.00    -0.000 C 
ENDROOT
BRANCH   1   2
ATOM      2  CB  LYS A   1       8.147  33.522  23.057  0.00  0.00    +0.025 C 
BRANCH   2   3
ATOM      3  CA  LYS A   1       9.427  33.572  23.896  0.00  0.00    +0.133 C 
BRANCH   3   4
ATOM      4  N   LYS A   1       9.379  32.603  24.977  0.00  0.00    -0.239 NA
ATOM      5  H   LYS A   1       8.465  32.361  25.410  0.00  0.00    +0.142 HD
ENDBRANCH   3   4
BRANCH   3   6
ATOM      6  C   LYS A   1       9.688  34.965  24.439  0.00  0.00    +0.224 C 
ATOM      7  O   LYS A   1       9.253  35.324  25.542  0.00  0.00    -0.287 OA
ENDBRANCH   3   6
ENDBRANCH   2   3
ENDBRANCH   1   2
BRANCH   1   8
ATOM      8  CD  LYS A   1       8.895  32.835  20.749  0.00  0.00    -0.024 C 
BRANCH   8   9
ATOM      9  CE  LYS A   1       7.965  33.464  19.710  0.00  0.00    -0.086 C 
BRANCH   9  10
ATOM     10  NZ  LYS A   1       7.046  32.471  19.079  0.00  0.00    +0.380 N 
ATOM     11  HZ1 LYS A   1       6.453  32.034  19.813  0.00  0.00    -0.089 HD
ATOM     12  HZ2 LYS A   1       7.606  31.737  18.601  0.00  0.00    -0.089 HD
ATOM     13  HZ3 LYS A   1       6.440  32.953  18.385  0.00  0.00    -0.089 HD
ENDBRANCH   9  10
ENDBRANCH   8   9
ENDBRANCH   1   8
TORSDOF 7
REMARK  Name = ../refined-set-2016/3t01/3t01_pocket.pdb
REMARK  130 active torsions:
REMARK  status: ('A' for Active; 'I' for Inactive)
REMARK    1  A    between atoms: _1  and  _3
REMARK    2  A    between atoms: _3  and  _4
REMARK    3  A    between atoms: _3  and  _6
REMARK    4  A    between atoms: _6  and  _7
REMARK    5  A    between atoms: _7  and  _8
REMARK    6  A    between atoms: _8  and  ZN_328
REMARK    7  A    between atoms: _10  and  _12
REMARK    8  A    between atoms: _12  and  _13
REMARK    9  A    between atoms: _16  and  _17
REMARK   10  A    between atoms: _22  and  _24
REMARK   11  A    between atoms: _24  and  _25
REMARK   12  A    between atoms: _24  and  _27
REMARK   13  A    between atoms: _27  and  _28
REMARK   14  A    between atoms: _30  and  _32
REMARK   15  A    between atoms: _32  and  _33
REMARK   16  A    between atoms: _32  and  _35
REMARK   17  A    between atoms: _35  and  _36
REMARK   18  A    between atoms: _42  and  _44
REMARK   19  A    between atoms: _44  and  _45
REMARK   20  A    between atoms: _44  and  _47
REMARK   21  A    between atoms: _47  and  _48
REMARK   22  A    between atoms: _51  and  _53
REMARK   23  A    between atoms: _53  and  _54
REMARK   24  A    between atoms: _53  and  _56
REMARK   25  A    between atoms: _56  and  _57
REMARK   26  A    between atoms: _63  and  _64
REMARK   27  A    between atoms: _69  and  _71
REMARK   28  A    between atoms: _71  and  _72
REMARK   29  A    between atoms: _71  and  _74
REMARK   30  A    between atoms: _74  and  _75
REMARK   31  A    between atoms: _80  and  _82
REMARK   32  A    between atoms: _82  and  _83
REMARK   33  A    between atoms: _82  and  _85
REMARK   34  A    between atoms: _85  and  _86
REMARK   35  A    between atoms: _91  and  _93
REMARK   36  A    between atoms: _93  and  _94
REMARK   37  A    between atoms: _96  and  _98
REMARK   38  A    between atoms: _98  and  _99
REMARK   39  A    between atoms: _98  and  _101
REMARK   40  A    between atoms: _101  and  _102
REMARK   41  A    between atoms: _107  and  _109
REMARK   42  A    between atoms: _109  and  _110
REMARK   43  A    between atoms: _109  and  _112
REMARK   44  A    between atoms: _112  and  _113
REMARK   45  A    between atoms: _113  and  _114
REMARK   46  A    between atoms: _114  and  _115
REMARK   47  A    between atoms: _115  and  _116
REMARK   48  A    between atoms: _120  and  _122
REMARK   49  A    between atoms: _122  and  _123
REMARK   50  A    between atoms: _122  and  _125
REMARK   51  A    between atoms: _125  and  _126
REMARK   52  A    between atoms: _126  and  _127
REMARK   53  A    between atoms: _127  and  _128
REMARK   54  A    between atoms: _128  and  _129
REMARK   55  A    between atoms: _133  and  _135
REMARK   56  A    between atoms: _135  and  _136
REMARK   57  A    between atoms: _135  and  _138
REMARK   58  A    between atoms: _138  and  _139
REMARK   59  A    between atoms: _144  and  _145
REMARK   60  A    between atoms: _147  and  _149
REMARK   61  A    between atoms: _149  and  _150
REMARK   62  A    between atoms: _149  and  _152
REMARK   63  A    between atoms: _152  and  _153
REMARK   64  A    between atoms: _156  and  _158
REMARK   65  A    between atoms: _158  and  _159
REMARK   66  A    between atoms: _158  and  _161
REMARK   67  A    between atoms: _161  and  _162
REMARK   68  A    between atoms: _165  and  _167
REMARK   69  A    between atoms: _167  and  _168
REMARK   70  A    between atoms: _167  and  _170
REMARK   71  A    between atoms: _170  and  _171
REMARK   72  A    between atoms: _171  and  _173
REMARK   73  A    between atoms: _173  and  ZN_329
REMARK   74  A    between atoms: _174  and  _176
REMARK   75  A    between atoms: _176  and  _177
REMARK   76  A    between atoms: _176  and  _179
REMARK   77  A    between atoms: _179  and  _180
REMARK   78  A    between atoms: _185  and  _186
REMARK   79  A    between atoms: _188  and  _190
REMARK   80  A    between atoms: _190  and  _191
REMARK   81  A    between atoms: _190  and  _193
REMARK   82  A    between atoms: _193  and  _194
REMARK   83  A    between atoms: _198  and  ZN_329
REMARK   84  A    between atoms: _199  and  _201
REMARK   85  A    between atoms: _210  and  _211
REMARK   86  A    between atoms: _219  and  _221
REMARK   87  A    between atoms: _221  and  _222
REMARK   88  A    between atoms: _221  and  _224
REMARK   89  A    between atoms: _224  and  _225
REMARK   90  A    between atoms: _225  and  _226
REMARK   91  A    between atoms: _229  and  _230
REMARK   92  A    between atoms: _235  and  _237
REMARK   93  A    between atoms: _237  and  _238
REMARK   94  A    between atoms: _237  and  _240
REMARK   95  A    between atoms: _240  and  _241
REMARK   96  A    between atoms: _244  and  _246
REMARK   97  A    between atoms: _246  and  _247
REMARK   98  A    between atoms: _246  and  _249
REMARK   99  A    between atoms: _249  and  _250
REMARK  100  A    between atoms: _253  and  _255
REMARK  101  A    between atoms: _255  and  _256
REMARK  102  A    between atoms: _255  and  _258
REMARK  103  A    between atoms: _258  and  _259
REMARK  104  A    between atoms: _262  and  _264
REMARK  105  A    between atoms: _264  and  _265
REMARK  106  A    between atoms: _267  and  _269
REMARK  107  A    between atoms: _269  and  _270
REMARK  108  A    between atoms: _273  and  _275
REMARK  109  A    between atoms: _275  and  _276
REMARK  110  A    between atoms: _275  and  _278
REMARK  111  A    between atoms: _278  and  _279
REMARK  112  A    between atoms: _282  and  _284
REMARK  113  A    between atoms: _284  and  _285
REMARK  114  A    between atoms: _287  and  _289
REMARK  115  A    between atoms: _289  and  _290
REMARK  116  A    between atoms: _289  and  _292
REMARK  117  A    between atoms: _292  and  _293
REMARK  118  A    between atoms: _293  and  _294
REMARK  119  A    between atoms: _294  and  _295
REMARK  120  A    between atoms: _304  and  _306
REMARK  121  A    between atoms: _306  and  _307
REMARK  122  A    between atoms: _306  and  _309
REMARK  123  A    between atoms: _309  and  _310
REMARK  124  A    between atoms: _312  and  _314
REMARK  125  A    between atoms: _314  and  _315
REMARK  126  A    between atoms: _314  and  _317
REMARK  127  A    between atoms: _317  and  _318
REMARK  128  A    between atoms: _322  and  ZN_329
REMARK  129  A    between atoms: _323  and  _325
REMARK  130  A    between atoms: _325  and  _326
REMARK                            x       y       z     vdW  Elec       q    Type
REMARK                         _______ _______ _______ _____ _____    ______ ____
ROOT
ATOM      1  CG  LYS A   1       6.074  38.030  21.825  0.00  0.00    -0.000 C 
ENDROOT
BRANCH   1   2
ATOM      2  CB  LYS A   1       7.040  39.202  21.940  0.00  0.00    +0.025 C 
BRANCH   2   3
ATOM      3  CA  LYS A   1       7.897  39.258  23.216  0.00  0.00    +0.133 C 
BRANCH   3   4
ATOM      4  N   LYS A   1       8.843  38.141  23.293  0.00  0.00    -0.239 NA
ATOM      5  H   LYS A   1       8.727  37.320  22.666  0.00  0.00    +0.142 HD
ENDBRANCH   3   4
BRANCH   3   6
ATOM      6  C   LYS A   1       7.046  39.411  24.481  0.00  0.00    +0.224 C 
ATOM      7  O   LYS A   1       6.450  40.457  24.699  0.00  0.00    -0.287 OA
ENDBRANCH   3   6
ENDBRANCH   2   3
ENDBRANCH   1   2
BRANCH   1   8
ATOM      8  CD  LYS A   1       4.659  38.431  22.211  0.00  0.00    -0.024 C 
BRANCH   8   9
ATOM      9  CE  LYS A   1       3.642  37.541  21.528  0.00  0.00    -0.086 C 
BRANCH   9  10
ATOM     10  NZ  LYS A   1       4.011  36.103  21.643  0.00  0.00    +0.380 N 
ATOM     11  HZ1 LYS A   1       4.059  35.838  22.648  0.00  0.00    -0.089 HD
ATOM     12  HZ2 LYS A   1       4.938  35.947  21.197  0.00  0.00    -0.089 HD
ATOM     13  HZ3 LYS A   1       3.293  35.523  21.164  0.00  0.00    -0.089 HD
ENDBRANCH   9  10
ENDBRANCH   8   9
ENDBRANCH   1   8
TORSDOF 7
REMARK  Name = ../refined-set-2016/3t01/3t01_pocket.pdb
REMARK  130 active torsions:
REMARK  status: ('A' for Active; 'I' for Inactive)
REMARK    1  A    between atoms: _1  and  _3
REMARK    2  A    between atoms: _3  and  _4
REMARK    3  A    between atoms: _3  and  _6
REMARK    4  A    between atoms: _6  and  _7
REMARK    5  A    between atoms: _7  and  _8
REMARK    6  A    between atoms: _8  and  ZN_328
REMARK    7  A    between atoms: _10  and  _12
REMARK    8  A    between atoms: _12  and  _13
REMARK    9  A    between atoms: _16  and  _17
REMARK   10  A    between atoms: _22  and  _24
REMARK   11  A    between atoms: _24  and  _25
REMARK   12  A    between atoms: _24  and  _27
REMARK   13  A    between atoms: _27  and  _28
REMARK   14  A    between atoms: _30  and  _32
REMARK   15  A    between atoms: _32  and  _33
REMARK   16  A    between atoms: _32  and  _35
REMARK   17  A    between atoms: _35  and  _36
REMARK   18  A    between atoms: _42  and  _44
REMARK   19  A    between atoms: _44  and  _45
REMARK   20  A    between atoms: _44  and  _47
REMARK   21  A    between atoms: _47  and  _48
REMARK   22  A    between atoms: _51  and  _53
REMARK   23  A    between atoms: _53  and  _54
REMARK   24  A    between atoms: _53  and  _56
REMARK   25  A    between atoms: _56  and  _57
REMARK   26  A    between atoms: _63  and  _64
REMARK   27  A    between atoms: _69  and  _71
REMARK   28  A    between atoms: _71  and  _72
REMARK   29  A    between atoms: _71  and  _74
REMARK   30  A    between atoms: _74  and  _75
REMARK   31  A    between atoms: _80  and  _82
REMARK   32  A    between atoms: _82  and  _83
REMARK   33  A    between atoms: _82  and  _85
REMARK   34  A    between atoms: _85  and  _86
REMARK   35  A    between atoms: _91  and  _93
REMARK   36  A    between atoms: _93  and  _94
REMARK   37  A    between atoms: _96  and  _98
REMARK   38  A    between atoms: _98  and  _99
REMARK   39  A    between atoms: _98  and  _101
REMARK   40  A    between atoms: _101  and  _102
REMARK   41  A    between atoms: _107  and  _109
REMARK   42  A    between atoms: _109  and  _110
REMARK   43  A    between atoms: _109  and  _112
REMARK   44  A    between atoms: _112  and  _113
REMARK   45  A    between atoms: _113  and  _114
REMARK   46  A    between atoms: _114  and  _115
REMARK   47  A    between atoms: _115  and  _116
REMARK   48  A    between atoms: _120  and  _122
REMARK   49  A    between atoms: _122  and  _123
REMARK   50  A    between atoms: _122  and  _125
REMARK   51  A    between atoms: _125  and  _126
REMARK   52  A    between atoms: _126  and  _127
REMARK   53  A    between atoms: _127  and  _128
REMARK   54  A    between atoms: _128  and  _129
REMARK   55  A    between atoms: _133  and  _135
REMARK   56  A    between atoms: _135  and  _136
REMARK   57  A    between atoms: _135  and  _138
REMARK   58  A    between atoms: _138  and  _139
REMARK   59  A    between atoms: _144  and  _145
REMARK   60  A    between atoms: _147  and  _149
REMARK   61  A    between atoms: _149  and  _150
REMARK   62  A    between atoms: _149  and  _152
REMARK   63  A    between atoms: _152  and  _153
REMARK   64  A    between atoms: _156  and  _158
REMARK   65  A    between atoms: _158  and  _159
REMARK   66  A    between atoms: _158  and  _161
REMARK   67  A    between atoms: _161  and  _162
REMARK   68  A    between atoms: _165  and  _167
REMARK   69  A    between atoms: _167  and  _168
REMARK   70  A    between atoms: _167  and  _170
REMARK   71  A    between atoms: _170  and  _171
REMARK   72  A    between atoms: _171  and  _173
REMARK   73  A    between atoms: _173  and  ZN_329
REMARK   74  A    between atoms: _174  and  _176
REMARK   75  A    between atoms: _176  and  _177
REMARK   76  A    between atoms: _176  and  _179
REMARK   77  A    between atoms: _179  and  _180
REMARK   78  A    between atoms: _185  and  _186
REMARK   79  A    between atoms: _188  and  _190
REMARK   80  A    between atoms: _190  and  _191
REMARK   81  A    between atoms: _190  and  _193
REMARK   82  A    between atoms: _193  and  _194
REMARK   83  A    between atoms: _198  and  ZN_329
REMARK   84  A    between atoms: _199  and  _201
REMARK   85  A    between atoms: _210  and  _211
REMARK   86  A    between atoms: _219  and  _221
REMARK   87  A    between atoms: _221  and  _222
REMARK   88  A    between atoms: _221  and  _224
REMARK   89  A    between atoms: _224  and  _225
REMARK   90  A    between atoms: _225  and  _226
REMARK   91  A    between atoms: _229  and  _230
REMARK   92  A    between atoms: _235  and  _237
REMARK   93  A    between atoms: _237  and  _238
REMARK   94  A    between atoms: _237  and  _240
REMARK   95  A    between atoms: _240  and  _241
REMARK   96  A    between atoms: _244  and  _246
REMARK   97  A    between atoms: _246  and  _247
REMARK   98  A    between atoms: _246  and  _249
REMARK   99  A    between atoms: _249  and  _250
REMARK  100  A    between atoms: _253  and  _255
REMARK  101  A    between atoms: _255  and  _256
REMARK  102  A    between atoms: _255  and  _258
REMARK  103  A    between atoms: _258  and  _259
REMARK  104  A    between atoms: _262  and  _264
REMARK  105  A    between atoms: _264  and  _265
REMARK  106  A    between atoms: _267  and  _269
REMARK  107  A    between atoms: _269  and  _270
REMARK  108  A    between atoms: _273  and  _275
REMARK  109  A    between atoms: _275  and  _276
REMARK  110  A    between atoms: _275  and  _278
REMARK  111  A    between atoms: _278  and  _279
REMARK  112  A    between atoms: _282  and  _284
REMARK  113  A    between atoms: _284  and  _285
REMARK  114  A    between atoms: _287  and  _289
REMARK  115  A    between atoms: _289  and  _290
REMARK  116  A    between atoms: _289  and  _292
REMARK  117  A    between atoms: _292  and  _293
REMARK  118  A    between atoms: _293  and  _294
REMARK  119  A    between atoms: _294  and  _295
REMARK  120  A    between atoms: _304  and  _306
REMARK  121  A    between atoms: _306  and  _307
REMARK  122  A    between atoms: _306  and  _309
REMARK  123  A    between atoms: _309  and  _310
REMARK  124  A    between atoms: _312  and  _314
REMARK  125  A    between atoms: _314  and  _315
REMARK  126  A    between atoms: _314  and  _317
REMARK  127  A    between atoms: _317  and  _318
REMARK  128  A    between atoms: _322  and  ZN_329
REMARK  129  A    between atoms: _323  and  _325
REMARK  130  A    between atoms: _325  and  _326
REMARK                            x       y       z     vdW  Elec       q    Type
REMARK                         _______ _______ _______ _____ _____    ______ ____
ROOT
ATOM      1  CG  TYR A   1       8.847  27.623  15.421  0.00  0.00    -0.020 A 
ATOM      2  CD2 TYR A   1       7.534  27.919  15.793  0.00  0.00    -0.001 A 
ATOM      3  CE2 TYR A   1       6.925  29.104  15.400  0.00  0.00    +0.036 A 
ATOM      4  CZ  TYR A   1       7.632  30.009  14.624  0.00  0.00    +0.134 A 
ATOM      5  CE1 TYR A   1       8.936  29.741  14.240  0.00  0.00    +0.036 A 
ATOM      6  CD1 TYR A   1       9.539  28.550  14.641  0.00  0.00    -0.001 A 
ENDROOT
BRANCH   4   7
ATOM      7  OH  TYR A   1       7.024  31.182  14.232  0.00  0.00    -0.506 OA
ATOM      8  HH  TYR A   1       6.102  31.210  14.591  0.00  0.00    +0.292 HD
ENDBRANCH   4   7
BRANCH   1   9
ATOM      9  CB  TYR A   1       9.500  26.330  15.854  0.00  0.00    +0.051 C 
BRANCH   9  10
ATOM     10  CA  TYR A   1       9.902  26.324  17.333  0.00  0.00    +0.137 C 
BRANCH  10  11
ATOM     11  N   TYR A   1      10.927  27.327  17.585  0.00  0.00    -0.239 NA
ATOM     12  H   TYR A   1      11.640  27.517  16.852  0.00  0.00    +0.142 HD
ENDBRANCH  10  11
BRANCH  10  13
ATOM     13  C   TYR A   1      10.381  24.947  17.786  0.00  0.00    +0.224 C 
ATOM     14  O   TYR A   1      10.722  24.085  16.970  0.00  0.00    -0.287 OA
ENDBRANCH  10  13
ENDBRANCH   9  10
ENDBRANCH   1   9
TORSDOF 5
REMARK  Name = ../refined-set-2016/3t01/3t01_pocket.pdb
REMARK  130 active torsions:
REMARK  status: ('A' for Active; 'I' for Inactive)
REMARK    1  A    between atoms: _1  and  _3
REMARK    2  A    between atoms: _3  and  _4
REMARK    3  A    between atoms: _3  and  _6
REMARK    4  A    between atoms: _6  and  _7
REMARK    5  A    between atoms: _7  and  _8
REMARK    6  A    between atoms: _8  and  ZN_328
REMARK    7  A    between atoms: _10  and  _12
REMARK    8  A    between atoms: _12  and  _13
REMARK    9  A    between atoms: _16  and  _17
REMARK   10  A    between atoms: _22  and  _24
REMARK   11  A    between atoms: _24  and  _25
REMARK   12  A    between atoms: _24  and  _27
REMARK   13  A    between atoms: _27  and  _28
REMARK   14  A    between atoms: _30  and  _32
REMARK   15  A    between atoms: _32  and  _33
REMARK   16  A    between atoms: _32  and  _35
REMARK   17  A    between atoms: _35  and  _36
REMARK   18  A    between atoms: _42  and  _44
REMARK   19  A    between atoms: _44  and  _45
REMARK   20  A    between atoms: _44  and  _47
REMARK   21  A    between atoms: _47  and  _48
REMARK   22  A    between atoms: _51  and  _53
REMARK   23  A    between atoms: _53  and  _54
REMARK   24  A    between atoms: _53  and  _56
REMARK   25  A    between atoms: _56  and  _57
REMARK   26  A    between atoms: _63  and  _64
REMARK   27  A    between atoms: _69  and  _71
REMARK   28  A    between atoms: _71  and  _72
REMARK   29  A    between atoms: _71  and  _74
REMARK   30  A    between atoms: _74  and  _75
REMARK   31  A    between atoms: _80  and  _82
REMARK   32  A    between atoms: _82  and  _83
REMARK   33  A    between atoms: _82  and  _85
REMARK   34  A    between atoms: _85  and  _86
REMARK   35  A    between atoms: _91  and  _93
REMARK   36  A    between atoms: _93  and  _94
REMARK   37  A    between atoms: _96  and  _98
REMARK   38  A    between atoms: _98  and  _99
REMARK   39  A    between atoms: _98  and  _101
REMARK   40  A    between atoms: _101  and  _102
REMARK   41  A    between atoms: _107  and  _109
REMARK   42  A    between atoms: _109  and  _110
REMARK   43  A    between atoms: _109  and  _112
REMARK   44  A    between atoms: _112  and  _113
REMARK   45  A    between atoms: _113  and  _114
REMARK   46  A    between atoms: _114  and  _115
REMARK   47  A    between atoms: _115  and  _116
REMARK   48  A    between atoms: _120  and  _122
REMARK   49  A    between atoms: _122  and  _123
REMARK   50  A    between atoms: _122  and  _125
REMARK   51  A    between atoms: _125  and  _126
REMARK   52  A    between atoms: _126  and  _127
REMARK   53  A    between atoms: _127  and  _128
REMARK   54  A    between atoms: _128  and  _129
REMARK   55  A    between atoms: _133  and  _135
REMARK   56  A    between atoms: _135  and  _136
REMARK   57  A    between atoms: _135  and  _138
REMARK   58  A    between atoms: _138  and  _139
REMARK   59  A    between atoms: _144  and  _145
REMARK   60  A    between atoms: _147  and  _149
REMARK   61  A    between atoms: _149  and  _150
REMARK   62  A    between atoms: _149  and  _152
REMARK   63  A    between atoms: _152  and  _153
REMARK   64  A    between atoms: _156  and  _158
REMARK   65  A    between atoms: _158  and  _159
REMARK   66  A    between atoms: _158  and  _161
REMARK   67  A    between atoms: _161  and  _162
REMARK   68  A    between atoms: _165  and  _167
REMARK   69  A    between atoms: _167  and  _168
REMARK   70  A    between atoms: _167  and  _170
REMARK   71  A    between atoms: _170  and  _171
REMARK   72  A    between atoms: _171  and  _173
REMARK   73  A    between atoms: _173  and  ZN_329
REMARK   74  A    between atoms: _174  and  _176
REMARK   75  A    between atoms: _176  and  _177
REMARK   76  A    between atoms: _176  and  _179
REMARK   77  A    between atoms: _179  and  _180
REMARK   78  A    between atoms: _185  and  _186
REMARK   79  A    between atoms: _188  and  _190
REMARK   80  A    between atoms: _190  and  _191
REMARK   81  A    between atoms: _190  and  _193
REMARK   82  A    between atoms: _193  and  _194
REMARK   83  A    between atoms: _198  and  ZN_329
REMARK   84  A    between atoms: _199  and  _201
REMARK   85  A    between atoms: _210  and  _211
REMARK   86  A    between atoms: _219  and  _221
REMARK   87  A    between atoms: _221  and  _222
REMARK   88  A    between atoms: _221  and  _224
REMARK   89  A    between atoms: _224  and  _225
REMARK   90  A    between atoms: _225  and  _226
REMARK   91  A    between atoms: _229  and  _230
REMARK   92  A    between atoms: _235  and  _237
REMARK   93  A    between atoms: _237  and  _238
REMARK   94  A    between atoms: _237  and  _240
REMARK   95  A    between atoms: _240  and  _241
REMARK   96  A    between atoms: _244  and  _246
REMARK   97  A    between atoms: _246  and  _247
REMARK   98  A    between atoms: _246  and  _249
REMARK   99  A    between atoms: _249  and  _250
REMARK  100  A    between atoms: _253  and  _255
REMARK  101  A    between atoms: _255  and  _256
REMARK  102  A    between atoms: _255  and  _258
REMARK  103  A    between atoms: _258  and  _259
REMARK  104  A    between atoms: _262  and  _264
REMARK  105  A    between atoms: _264  and  _265
REMARK  106  A    between atoms: _267  and  _269
REMARK  107  A    between atoms: _269  and  _270
REMARK  108  A    between atoms: _273  and  _275
REMARK  109  A    between atoms: _275  and  _276
REMARK  110  A    between atoms: _275  and  _278
REMARK  111  A    between atoms: _278  and  _279
REMARK  112  A    between atoms: _282  and  _284
REMARK  113  A    between atoms: _284  and  _285
REMARK  114  A    between atoms: _287  and  _289
REMARK  115  A    between atoms: _289  and  _290
REMARK  116  A    between atoms: _289  and  _292
REMARK  117  A    between atoms: _292  and  _293
REMARK  118  A    between atoms: _293  and  _294
REMARK  119  A    between atoms: _294  and  _295
REMARK  120  A    between atoms: _304  and  _306
REMARK  121  A    between atoms: _306  and  _307
REMARK  122  A    between atoms: _306  and  _309
REMARK  123  A    between atoms: _309  and  _310
REMARK  124  A    between atoms: _312  and  _314
REMARK  125  A    between atoms: _314  and  _315
REMARK  126  A    between atoms: _314  and  _317
REMARK  127  A    between atoms: _317  and  _318
REMARK  128  A    between atoms: _322  and  ZN_329
REMARK  129  A    between atoms: _323  and  _325
REMARK  130  A    between atoms: _325  and  _326
REMARK                            x       y       z     vdW  Elec       q    Type
REMARK                         _______ _______ _______ _____ _____    ______ ____
ROOT
ATOM      1 ZN   UNK A   3      -1.282  28.892  20.922  0.00  0.00    +0.000 Zn
ENDROOT
BRANCH   1   2
ATOM      2  N   UNK A   3      -1.240  27.395  19.529  0.00  0.00    +0.000 N 
ATOM      3  C   UNK A   3      -0.220  26.478  19.438  0.00  0.00    +0.000 A 
ATOM      4  C   UNK A   3      -0.636  25.497  18.604  0.00  0.00    +0.000 A 
ATOM      5  N   UNK A   3      -1.905  25.855  18.196  0.00  0.00    +0.000 NA
ATOM      6  C   UNK A   3      -2.248  26.991  18.776  0.00  0.00    +0.000 A 
BRANCH   4   7
ATOM      7  C   UNK A   3       0.062  24.265  18.116  0.00  0.00    +0.000 C 
BRANCH   7   8
ATOM      8  C   UNK A   3      -0.444  22.960  18.741  0.00  0.00    +0.000 C 
BRANCH   8   9
ATOM      9  N   UNK A   3       0.207  22.688  20.028  0.00  0.00    +0.000 NA
ATOM     10  H   UNK A   1       1.015  23.268  20.330  0.00  0.00    +0.000 HD
ENDBRANCH   8   9
BRANCH   8  11
ATOM     11  C   UNK A   3      -0.223  21.811  17.756  0.00  0.00    +0.000 C 
ATOM     12  O   UNK A   1      -1.064  21.566  16.895  0.00  0.00    +0.000 OA
ENDBRANCH   8  11
ENDBRANCH   7   8
ENDBRANCH   4   7
ENDBRANCH   1   2
BRANCH   1  13
ATOM     13  N   UNK A   3      -3.262  29.024  21.451  0.00  0.00    +0.000 N 
ATOM     14  C   UNK A   3      -3.785  30.064  22.076  0.00  0.00    +0.000 A 
ATOM     15  N   UNK A   3      -4.976  29.722  22.531  0.00  0.00    +0.000 NA
ATOM     16  C   UNK A   3      -5.239  28.414  22.186  0.00  0.00    +0.000 A 
ATOM     17  C   UNK A   3      -4.153  27.980  21.502  0.00  0.00    +0.000 A 
BRANCH  16  18
ATOM     18  C   UNK A   3      -6.518  27.726  22.544  0.00  0.00    +0.000 C 
BRANCH  18  19
ATOM     19  C   UNK A   3      -7.553  27.713  21.407  0.00  0.00    +0.000 C 
BRANCH  19  20
ATOM     20  N   UNK A   3      -6.924  27.269  20.180  0.00  0.00    +0.000 N 
ATOM     21  C   SER A   2      -6.744  25.984  19.898  0.00  0.00    +0.000 C 
ATOM     22  O   SER A   2      -7.200  25.067  20.586  0.00  0.00    +0.000 OA
ATOM     23  H   UNK A   3      -6.602  27.982  19.495  0.00  0.00    +0.000 HD
BRANCH  21  24
ATOM     24  CA  SER A   2      -5.915  25.706  18.650  0.00  0.00    +0.000 C 
BRANCH  24  25
ATOM     25  N   SER A   2      -6.007  24.328  18.170  0.00  0.00    +0.000 N 
ATOM     26  H   SER A   2      -6.832  23.744  18.415  0.00  0.00    +0.000 HD
ATOM     27  C   UNK A   1      -5.031  23.824  17.419  0.00  0.00    +0.000 C 
ATOM     28  O   UNK A   1      -4.056  24.488  17.060  0.00  0.00    +0.000 OA
BRANCH  27  29
ATOM     29  C   UNK A   1      -5.174  22.374  16.977  0.00  0.00    +0.000 C 
BRANCH  29  30
ATOM     30  N   UNK A   1      -4.780  22.340  15.576  0.00  0.00    +0.000 NA
ATOM     31  H   UNK A   1      -3.847  22.719  15.315  0.00  0.00    +0.000 HD
ENDBRANCH  29  30
BRANCH  29  32
ATOM     32  C   UNK A   1      -4.266  21.479  17.822  0.00  0.00    +0.000 C 
BRANCH  32  33
ATOM     33  C   UNK A   1      -4.259  20.018  17.401  0.00  0.00    +0.000 C 
BRANCH  33  34
ATOM     34  C   UNK A   1      -3.270  19.197  18.217  0.00  0.00    +0.000 C 
BRANCH  34  35
ATOM     35  N   UNK A   1      -3.436  19.381  19.660  0.00  0.00    +0.330 N 
ATOM     36  C   UNK A   1      -4.424  18.867  20.391  0.00  0.00    +0.000 C 
ATOM     37  N   UNK A   1      -4.468  19.105  21.696  0.00  0.00    +0.330 N 
ATOM     38  H   UNK A   1      -5.237  18.706  22.272  0.00  0.00    +0.000 HD
ATOM     39  H   UNK A   1      -3.734  19.690  22.143  0.00  0.00    +0.000 HD
ATOM     40  N   UNK A   1      -5.370  18.116  19.830  0.00  0.00    +0.330 N 
ATOM     41  H   UNK A   1      -6.135  17.722  20.414  0.00  0.00    +0.000 HD
ATOM     42  H   UNK A   1      -5.344  17.924  18.808  0.00  0.00    +0.000 HD
ATOM     43  H   UNK A   1      -2.726  19.959  20.154  0.00  0.00    +0.000 HD
ENDBRANCH  34  35
ENDBRANCH  33  34
ENDBRANCH  32  33
ENDBRANCH  29  32
ENDBRANCH  27  29
ENDBRANCH  24  25
BRANCH  24  44
ATOM     44  CB  SER A   2      -6.244  26.712  17.539  0.00  0.00    +0.000 C 
BRANCH  44  45
ATOM     45  OG  SER A   2      -5.628  27.968  17.790  0.00  0.00    +0.000 OA
ATOM     46  H   SER A   2      -5.855  28.597  17.060  0.00  0.00    +0.000 HD
ENDBRANCH  44  45
ENDBRANCH  24  44
ENDBRANCH  21  24
ENDBRANCH  19  20
BRANCH  19  47
ATOM     47  C   UNK A   3      -8.166  29.092  21.187  0.00  0.00    +0.000 C 
ATOM     48  N   TYR A   4      -8.587  29.738  22.272  0.00  0.00    +0.000 N 
ATOM     49  H   TYR A   4      -8.457  29.292  23.203  0.00  0.00    +0.000 HD
ATOM     50  O   UNK A   3      -8.256  29.552  20.044  0.00  0.00    +0.000 OA
BRANCH  48  51
ATOM     51  CA  TYR A   4      -9.227  31.055  22.202  0.00  0.00    +0.000 C 
BRANCH  51  52
ATOM     52  C   TYR A   4     -10.657  31.057  22.703  0.00  0.00    +0.000 C 
ATOM     53  O   TYR A   4     -11.143  32.076  23.199  0.00  0.00    +0.000 OA
ENDBRANCH  51  52
ENDBRANCH  48  51
ENDBRANCH  19  47
ENDBRANCH  18  19
ENDBRANCH  16  18
ENDBRANCH   1  13
BRANCH   1  54
ATOM     54  O   UNK A   3      -0.547  27.908  22.434  0.00  0.00    +0.000 OA
BRANCH  54  55
ATOM     55  C   UNK A   3       0.638  27.505  22.392  0.00  0.00    +0.000 C 
ATOM     56  O   UNK A   3       1.500  28.026  21.646  0.00  0.00    +0.000 OA
BRANCH  55  57
ATOM     57  C   UNK A   3       1.006  26.336  23.300  0.00  0.00    +0.000 C 
BRANCH  57  58
ATOM     58  C   UNK A   3       2.492  25.945  23.221  0.00  0.00    +0.000 C 
BRANCH  58  61
ATOM     59  C   SER A   2       4.390  26.900  24.403  0.00  0.00    +0.000 C 
ATOM     60  O   SER A   2       4.711  25.812  24.896  0.00  0.00    +0.000 OA
ATOM     61  N   UNK A   3       3.363  27.061  23.574  0.00  0.00    +0.000 N 
ATOM     62  H   UNK A   3       3.177  28.001  23.169  0.00  0.00    +0.000 HD
BRANCH  59  63
ATOM     63  CA  SER A   2       5.184  28.150  24.716  0.00  0.00    +0.000 C 
BRANCH  63  66
ATOM     64  C   UNK A   1       5.881  28.708  26.991  0.00  0.00    +0.000 C 
ATOM     65  O   UNK A   1       5.297  29.791  26.948  0.00  0.00    +0.000 OA
ATOM     66  N   SER A   2       6.004  27.920  25.921  0.00  0.00    +0.000 N 
ATOM     67  H   SER A   2       6.686  27.135  25.937  0.00  0.00    +0.000 HD
BRANCH  64  68
ATOM     68  C   UNK A   1       6.548  28.256  28.293  0.00  0.00    +0.000 C 
BRANCH  68  69
ATOM     69  N   UNK A   1       6.014  29.020  29.417  0.00  0.00    +0.000 NA
ATOM     70  H   UNK A   1       5.029  28.856  29.708  0.00  0.00    +0.000 HD
ENDBRANCH  68  69
BRANCH  68  71
ATOM     71  C   UNK A   1       6.324  26.763  28.540  0.00  0.00    +0.000 C 
ATOM     72  C   UNK A   1       7.031  26.323  29.824  0.00  0.00    +0.000 C 
BRANCH  71  73
ATOM     73  O   UNK A   1       4.923  26.512  28.688  0.00  0.00    +0.000 OA
ATOM     74  H   UNK A   1       4.777  25.546  28.848  0.00  0.00    +0.000 HD
ENDBRANCH  71  73
ENDBRANCH  68  71
ENDBRANCH  64  68
ENDBRANCH  63  66
BRANCH  63  75
ATOM     75  CB  SER A   2       5.983  28.548  23.445  0.00  0.00    +0.000 C 
ATOM     76  CG2 SER A   2       7.078  29.534  23.757  0.00  0.00    +0.000 C 
BRANCH  75  77
ATOM     77  OG1 SER A   2       6.524  27.376  22.819  0.00  0.00    +0.000 OA
ATOM     78  HG1 SER A   2       7.031  27.639  22.011  0.00  0.00    +0.000 HD
ENDBRANCH  75  77
ENDBRANCH  63  75
ENDBRANCH  59  63
ENDBRANCH  58  61
BRANCH  58  79
ATOM     79  C   UNK A   3       2.838  25.310  21.870  0.00  0.00    +0.000 C 
ATOM     80  N   TYR A   4       4.106  25.417  21.471  0.00  0.00    +0.000 N 
ATOM     81  H   TYR A   4       4.777  25.951  22.059  0.00  0.00    +0.000 HD
ATOM     82  O   UNK A   3       1.974  24.727  21.217  0.00  0.00    +0.000 OA
BRANCH  80  83
ATOM     83  CA  TYR A   4       4.580  24.805  20.230  0.00  0.00    +0.000 C 
BRANCH  83  84
ATOM     84  C   TYR A   4       4.190  23.328  20.122  0.00  0.00    +0.000 C 
ATOM     85  O   TYR A   4       3.568  22.911  19.142  0.00  0.00    +0.000 OA
ENDBRANCH  83  84
BRANCH  83  86
ATOM     86  CB  TYR A   4       6.099  24.955  20.090  0.00  0.00    +0.000 C 
BRANCH  86  87
ATOM     87  CG  TYR A   4       6.663  24.142  18.944  0.00  0.00    +0.000 A 
ATOM     88  CD2 TYR A   4       7.291  22.920  19.179  0.00  0.00    +0.000 A 
ATOM     89  CE2 TYR A   4       7.799  22.163  18.131  0.00  0.00    +0.000 A 
ATOM     90  CZ  TYR A   4       7.679  22.631  16.836  0.00  0.00    +0.000 A 
ATOM     91  CE1 TYR A   4       7.055  23.839  16.575  0.00  0.00    +0.000 A 
ATOM     92  CD1 TYR A   4       6.547  24.587  17.629  0.00  0.00    +0.000 A 
BRANCH  90  93
ATOM     93  OH  TYR A   4       8.183  21.888  15.790  0.00  0.00    +0.000 OA
ATOM     94  HH  TYR A   4       9.158  21.765  15.913  0.00  0.00    +0.000 HD
ENDBRANCH  90  93
ENDBRANCH  86  87
ENDBRANCH  83  86
ENDBRANCH  80  83
ENDBRANCH  58  79
ENDBRANCH  57  58
ENDBRANCH  55  57
ENDBRANCH  54  55
ENDBRANCH   1  54
TORSDOF 41
REMARK  Name = ../refined-set-2016/3t01/3t01_pocket.pdb
REMARK  130 active torsions:
REMARK  status: ('A' for Active; 'I' for Inactive)
REMARK    1  A    between atoms: _1  and  _3
REMARK    2  A    between atoms: _3  and  _4
REMARK    3  A    between atoms: _3  and  _6
REMARK    4  A    between atoms: _6  and  _7
REMARK    5  A    between atoms: _7  and  _8
REMARK    6  A    between atoms: _8  and  ZN_328
REMARK    7  A    between atoms: _10  and  _12
REMARK    8  A    between atoms: _12  and  _13
REMARK    9  A    between atoms: _16  and  _17
REMARK   10  A    between atoms: _22  and  _24
REMARK   11  A    between atoms: _24  and  _25
REMARK   12  A    between atoms: _24  and  _27
REMARK   13  A    between atoms: _27  and  _28
REMARK   14  A    between atoms: _30  and  _32
REMARK   15  A    between atoms: _32  and  _33
REMARK   16  A    between atoms: _32  and  _35
REMARK   17  A    between atoms: _35  and  _36
REMARK   18  A    between atoms: _42  and  _44
REMARK   19  A    between atoms: _44  and  _45
REMARK   20  A    between atoms: _44  and  _47
REMARK   21  A    between atoms: _47  and  _48
REMARK   22  A    between atoms: _51  and  _53
REMARK   23  A    between atoms: _53  and  _54
REMARK   24  A    between atoms: _53  and  _56
REMARK   25  A    between atoms: _56  and  _57
REMARK   26  A    between atoms: _63  and  _64
REMARK   27  A    between atoms: _69  and  _71
REMARK   28  A    between atoms: _71  and  _72
REMARK   29  A    between atoms: _71  and  _74
REMARK   30  A    between atoms: _74  and  _75
REMARK   31  A    between atoms: _80  and  _82
REMARK   32  A    between atoms: _82  and  _83
REMARK   33  A    between atoms: _82  and  _85
REMARK   34  A    between atoms: _85  and  _86
REMARK   35  A    between atoms: _91  and  _93
REMARK   36  A    between atoms: _93  and  _94
REMARK   37  A    between atoms: _96  and  _98
REMARK   38  A    between atoms: _98  and  _99
REMARK   39  A    between atoms: _98  and  _101
REMARK   40  A    between atoms: _101  and  _102
REMARK   41  A    between atoms: _107  and  _109
REMARK   42  A    between atoms: _109  and  _110
REMARK   43  A    between atoms: _109  and  _112
REMARK   44  A    between atoms: _112  and  _113
REMARK   45  A    between atoms: _113  and  _114
REMARK   46  A    between atoms: _114  and  _115
REMARK   47  A    between atoms: _115  and  _116
REMARK   48  A    between atoms: _120  and  _122
REMARK   49  A    between atoms: _122  and  _123
REMARK   50  A    between atoms: _122  and  _125
REMARK   51  A    between atoms: _125  and  _126
REMARK   52  A    between atoms: _126  and  _127
REMARK   53  A    between atoms: _127  and  _128
REMARK   54  A    between atoms: _128  and  _129
REMARK   55  A    between atoms: _133  and  _135
REMARK   56  A    between atoms: _135  and  _136
REMARK   57  A    between atoms: _135  and  _138
REMARK   58  A    between atoms: _138  and  _139
REMARK   59  A    between atoms: _144  and  _145
REMARK   60  A    between atoms: _147  and  _149
REMARK   61  A    between atoms: _149  and  _150
REMARK   62  A    between atoms: _149  and  _152
REMARK   63  A    between atoms: _152  and  _153
REMARK   64  A    between atoms: _156  and  _158
REMARK   65  A    between atoms: _158  and  _159
REMARK   66  A    between atoms: _158  and  _161
REMARK   67  A    between atoms: _161  and  _162
REMARK   68  A    between atoms: _165  and  _167
REMARK   69  A    between atoms: _167  and  _168
REMARK   70  A    between atoms: _167  and  _170
REMARK   71  A    between atoms: _170  and  _171
REMARK   72  A    between atoms: _171  and  _173
REMARK   73  A    between atoms: _173  and  ZN_329
REMARK   74  A    between atoms: _174  and  _176
REMARK   75  A    between atoms: _176  and  _177
REMARK   76  A    between atoms: _176  and  _179
REMARK   77  A    between atoms: _179  and  _180
REMARK   78  A    between atoms: _185  and  _186
REMARK   79  A    between atoms: _188  and  _190
REMARK   80  A    between atoms: _190  and  _191
REMARK   81  A    between atoms: _190  and  _193
REMARK   82  A    between atoms: _193  and  _194
REMARK   83  A    between atoms: _198  and  ZN_329
REMARK   84  A    between atoms: _199  and  _201
REMARK   85  A    between atoms: _210  and  _211
REMARK   86  A    between atoms: _219  and  _221
REMARK   87  A    between atoms: _221  and  _222
REMARK   88  A    between atoms: _221  and  _224
REMARK   89  A    between atoms: _224  and  _225
REMARK   90  A    between atoms: _225  and  _226
REMARK   91  A    between atoms: _229  and  _230
REMARK   92  A    between atoms: _235  and  _237
REMARK   93  A    between atoms: _237  and  _238
REMARK   94  A    between atoms: _237  and  _240
REMARK   95  A    between atoms: _240  and  _241
REMARK   96  A    between atoms: _244  and  _246
REMARK   97  A    between atoms: _246  and  _247
REMARK   98  A    between atoms: _246  and  _249
REMARK   99  A    between atoms: _249  and  _250
REMARK  100  A    between atoms: _253  and  _255
REMARK  101  A    between atoms: _255  and  _256
REMARK  102  A    between atoms: _255  and  _258
REMARK  103  A    between atoms: _258  and  _259
REMARK  104  A    between atoms: _262  and  _264
REMARK  105  A    between atoms: _264  and  _265
REMARK  106  A    between atoms: _267  and  _269
REMARK  107  A    between atoms: _269  and  _270
REMARK  108  A    between atoms: _273  and  _275
REMARK  109  A    between atoms: _275  and  _276
REMARK  110  A    between atoms: _275  and  _278
REMARK  111  A    between atoms: _278  and  _279
REMARK  112  A    between atoms: _282  and  _284
REMARK  113  A    between atoms: _284  and  _285
REMARK  114  A    between atoms: _287  and  _289
REMARK  115  A    between atoms: _289  and  _290
REMARK  116  A    between atoms: _289  and  _292
REMARK  117  A    between atoms: _292  and  _293
REMARK  118  A    between atoms: _293  and  _294
REMARK  119  A    between atoms: _294  and  _295
REMARK  120  A    between atoms: _304  and  _306
REMARK  121  A    between atoms: _306  and  _307
REMARK  122  A    between atoms: _306  and  _309
REMARK  123  A    between atoms: _309  and  _310
REMARK  124  A    between atoms: _312  and  _314
REMARK  125  A    between atoms: _314  and  _315
REMARK  126  A    between atoms: _314  and  _317
REMARK  127  A    between atoms: _317  and  _318
REMARK  128  A    between atoms: _322  and  ZN_329
REMARK  129  A    between atoms: _323  and  _325
REMARK  130  A    between atoms: _325  and  _326
REMARK                            x       y       z     vdW  Elec       q    Type
REMARK                         _______ _______ _______ _____ _____    ______ ____
ROOT
ATOM      1  CA  MET A   1      -6.001  23.128  23.493  0.00  0.00    +0.134 C 
ENDROOT
BRANCH   1   2
ATOM      2  N   MET A   1      -6.276  23.380  24.904  0.00  0.00    -0.239 NA
ATOM      3  H   MET A   1      -6.795  22.667  25.455  0.00  0.00    +0.142 HD
ENDBRANCH   1   2
BRANCH   1   4
ATOM      4  C   MET A   1      -6.983  22.072  23.003  0.00  0.00    +0.224 C 
ATOM      5  O   MET A   1      -7.204  21.064  23.674  0.00  0.00    -0.287 OA
ENDBRANCH   1   4
BRANCH   1   6
ATOM      6  CB  MET A   1      -4.552  22.648  23.302  0.00  0.00    +0.037 C 
BRANCH   6   7
ATOM      7  CG  MET A   1      -4.071  22.585  21.843  0.00  0.00    +0.059 C 
BRANCH   7   8
ATOM      8  SD  MET A   1      -3.733  24.199  21.097  0.00  0.00    -0.139 S 
ATOM      9  CE  MET A   1      -2.311  24.748  22.045  0.00  0.00    +0.069 C 
ENDBRANCH   7   8
ENDBRANCH   6   7
ENDBRANCH   1   6
TORSDOF 5
REMARK  Name = ../refined-set-2016/3t01/3t01_pocket.pdb
REMARK  130 active torsions:
REMARK  status: ('A' for Active; 'I' for Inactive)
REMARK    1  A    between atoms: _1  and  _3
REMARK    2  A    between atoms: _3  and  _4
REMARK    3  A    between atoms: _3  and  _6
REMARK    4  A    between atoms: _6  and  _7
REMARK    5  A    between atoms: _7  and  _8
REMARK    6  A    between atoms: _8  and  ZN_328
REMARK    7  A    between atoms: _10  and  _12
REMARK    8  A    between atoms: _12  and  _13
REMARK    9  A    between atoms: _16  and  _17
REMARK   10  A    between atoms: _22  and  _24
REMARK   11  A    between atoms: _24  and  _25
REMARK   12  A    between atoms: _24  and  _27
REMARK   13  A    between atoms: _27  and  _28
REMARK   14  A    between atoms: _30  and  _32
REMARK   15  A    between atoms: _32  and  _33
REMARK   16  A    between atoms: _32  and  _35
REMARK   17  A    between atoms: _35  and  _36
REMARK   18  A    between atoms: _42  and  _44
REMARK   19  A    between atoms: _44  and  _45
REMARK   20  A    between atoms: _44  and  _47
REMARK   21  A    between atoms: _47  and  _48
REMARK   22  A    between atoms: _51  and  _53
REMARK   23  A    between atoms: _53  and  _54
REMARK   24  A    between atoms: _53  and  _56
REMARK   25  A    between atoms: _56  and  _57
REMARK   26  A    between atoms: _63  and  _64
REMARK   27  A    between atoms: _69  and  _71
REMARK   28  A    between atoms: _71  and  _72
REMARK   29  A    between atoms: _71  and  _74
REMARK   30  A    between atoms: _74  and  _75
REMARK   31  A    between atoms: _80  and  _82
REMARK   32  A    between atoms: _82  and  _83
REMARK   33  A    between atoms: _82  and  _85
REMARK   34  A    between atoms: _85  and  _86
REMARK   35  A    between atoms: _91  and  _93
REMARK   36  A    between atoms: _93  and  _94
REMARK   37  A    between atoms: _96  and  _98
REMARK   38  A    between atoms: _98  and  _99
REMARK   39  A    between atoms: _98  and  _101
REMARK   40  A    between atoms: _101  and  _102
REMARK   41  A    between atoms: _107  and  _109
REMARK   42  A    between atoms: _109  and  _110
REMARK   43  A    between atoms: _109  and  _112
REMARK   44  A    between atoms: _112  and  _113
REMARK   45  A    between atoms: _113  and  _114
REMARK   46  A    between atoms: _114  and  _115
REMARK   47  A    between atoms: _115  and  _116
REMARK   48  A    between atoms: _120  and  _122
REMARK   49  A    between atoms: _122  and  _123
REMARK   50  A    between atoms: _122  and  _125
REMARK   51  A    between atoms: _125  and  _126
REMARK   52  A    between atoms: _126  and  _127
REMARK   53  A    between atoms: _127  and  _128
REMARK   54  A    between atoms: _128  and  _129
REMARK   55  A    between atoms: _133  and  _135
REMARK   56  A    between atoms: _135  and  _136
REMARK   57  A    between atoms: _135  and  _138
REMARK   58  A    between atoms: _138  and  _139
REMARK   59  A    between atoms: _144  and  _145
REMARK   60  A    between atoms: _147  and  _149
REMARK   61  A    between atoms: _149  and  _150
REMARK   62  A    between atoms: _149  and  _152
REMARK   63  A    between atoms: _152  and  _153
REMARK   64  A    between atoms: _156  and  _158
REMARK   65  A    between atoms: _158  and  _159
REMARK   66  A    between atoms: _158  and  _161
REMARK   67  A    between atoms: _161  and  _162
REMARK   68  A    between atoms: _165  and  _167
REMARK   69  A    between atoms: _167  and  _168
REMARK   70  A    between atoms: _167  and  _170
REMARK   71  A    between atoms: _170  and  _171
REMARK   72  A    between atoms: _171  and  _173
REMARK   73  A    between atoms: _173  and  ZN_329
REMARK   74  A    between atoms: _174  and  _176
REMARK   75  A    between atoms: _176  and  _177
REMARK   76  A    between atoms: _176  and  _179
REMARK   77  A    between atoms: _179  and  _180
REMARK   78  A    between atoms: _185  and  _186
REMARK   79  A    between atoms: _188  and  _190
REMARK   80  A    between atoms: _190  and  _191
REMARK   81  A    between atoms: _190  and  _193
REMARK   82  A    between atoms: _193  and  _194
REMARK   83  A    between atoms: _198  and  ZN_329
REMARK   84  A    between atoms: _199  and  _201
REMARK   85  A    between atoms: _210  and  _211
REMARK   86  A    between atoms: _219  and  _221
REMARK   87  A    between atoms: _221  and  _222
REMARK   88  A    between atoms: _221  and  _224
REMARK   89  A    between atoms: _224  and  _225
REMARK   90  A    between atoms: _225  and  _226
REMARK   91  A    between atoms: _229  and  _230
REMARK   92  A    between atoms: _235  and  _237
REMARK   93  A    between atoms: _237  and  _238
REMARK   94  A    between atoms: _237  and  _240
REMARK   95  A    between atoms: _240  and  _241
REMARK   96  A    between atoms: _244  and  _246
REMARK   97  A    between atoms: _246  and  _247
REMARK   98  A    between atoms: _246  and  _249
REMARK   99  A    between atoms: _249  and  _250
REMARK  100  A    between atoms: _253  and  _255
REMARK  101  A    between atoms: _255  and  _256
REMARK  102  A    between atoms: _255  and  _258
REMARK  103  A    between atoms: _258  and  _259
REMARK  104  A    between atoms: _262  and  _264
REMARK  105  A    between atoms: _264  and  _265
REMARK  106  A    between atoms: _267  and  _269
REMARK  107  A    between atoms: _269  and  _270
REMARK  108  A    between atoms: _273  and  _275
REMARK  109  A    between atoms: _275  and  _276
REMARK  110  A    between atoms: _275  and  _278
REMARK  111  A    between atoms: _278  and  _279
REMARK  112  A    between atoms: _282  and  _284
REMARK  113  A    between atoms: _284  and  _285
REMARK  114  A    between atoms: _287  and  _289
REMARK  115  A    between atoms: _289  and  _290
REMARK  116  A    between atoms: _289  and  _292
REMARK  117  A    between atoms: _292  and  _293
REMARK  118  A    between atoms: _293  and  _294
REMARK  119  A    between atoms: _294  and  _295
REMARK  120  A    between atoms: _304  and  _306
REMARK  121  A    between atoms: _306  and  _307
REMARK  122  A    between atoms: _306  and  _309
REMARK  123  A    between atoms: _309  and  _310
REMARK  124  A    between atoms: _312  and  _314
REMARK  125  A    between atoms: _314  and  _315
REMARK  126  A    between atoms: _314  and  _317
REMARK  127  A    between atoms: _317  and  _318
REMARK  128  A    between atoms: _322  and  ZN_329
REMARK  129  A    between atoms: _323  and  _325
REMARK  130  A    between atoms: _325  and  _326
REMARK                            x       y       z     vdW  Elec       q    Type
REMARK                         _______ _______ _______ _____ _____    ______ ____
ROOT
ATOM      1  C   ILE A   2      -3.138  35.510  18.343  0.00  0.00    +0.241 C 
ATOM      2  O   ILE A   2      -2.271  35.126  19.129  0.00  0.00    -0.273 OA
ATOM      3  N   THR A   3      -2.861  36.189  17.236  0.00  0.00    -0.295 N 
ATOM      4  H   THR A   3      -3.639  36.508  16.623  0.00  0.00    +0.150 HD
ENDROOT
BRANCH   1   5
ATOM      5  CA  ILE A   2      -4.610  35.211  18.618  0.00  0.00    +0.148 C 
BRANCH   5   8
ATOM      6  C   PRO A   1      -5.365  37.553  18.806  0.00  0.00    +0.239 C 
ATOM      7  O   PRO A   1      -4.363  37.908  19.433  0.00  0.00    -0.274 OA
ATOM      8  N   ILE A   2      -5.530  36.323  18.313  0.00  0.00    -0.297 N 
ATOM      9  H   ILE A   2      -6.341  36.141  17.688  0.00  0.00    +0.150 HD
BRANCH   6  11
ATOM     10  N   PRO A   1      -7.443  38.251  17.500  0.00  0.00    -0.210 NA
ATOM     11  CA  PRO A   1      -6.481  38.570  18.562  0.00  0.00    +0.149 C 
ATOM     12  CB  PRO A   1      -7.363  38.673  19.815  0.00  0.00    +0.028 C 
ATOM     13  CG  PRO A   1      -8.740  38.912  19.304  0.00  0.00    +0.021 C 
ATOM     14  CD  PRO A   1      -8.812  38.133  18.034  0.00  0.00    +0.089 C 
ENDBRANCH   6  11
ENDBRANCH   5   8
BRANCH   5  15
ATOM     15  CB  ILE A   2      -5.020  33.870  17.924  0.00  0.00    +0.027 C 
ATOM     16  CG2 ILE A   2      -5.007  33.998  16.399  0.00  0.00    +0.002 C 
BRANCH  15  17
ATOM     17  CG1 ILE A   2      -4.120  32.717  18.405  0.00  0.00    +0.002 C 
ATOM     18  CD1 ILE A   2      -4.622  31.324  18.054  0.00  0.00    +0.000 C 
ENDBRANCH  15  17
ENDBRANCH   5  15
ENDBRANCH   1   5
BRANCH   3  19
ATOM     19  CA  THR A   3      -1.481  36.496  16.864  0.00  0.00    +0.176 C 
BRANCH  19  20
ATOM     20  C   THR A   3      -1.340  37.904  16.271  0.00  0.00    +0.243 C 
ATOM     21  O   THR A   3      -2.296  38.684  16.270  0.00  0.00    -0.273 OA
ATOM     22  N   ASP A   4      -0.139  38.228  15.797  0.00  0.00    -0.297 N 
ATOM     23  H   ASP A   4       0.651  37.567  15.939  0.00  0.00    +0.150 HD
BRANCH  22  24
ATOM     24  CA  ASP A   4       0.110  39.479  15.084  0.00  0.00    +0.148 C 
BRANCH  24  25
ATOM     25  C   ASP A   4      -0.627  39.466  13.737  0.00  0.00    +0.227 C 
ATOM     26  O   ASP A   4      -0.778  38.402  13.129  0.00  0.00    -0.286 OA
ENDBRANCH  24  25
BRANCH  24  27
ATOM     27  CB  ASP A   4       1.615  39.689  14.888  0.00  0.00    +0.142 C 
BRANCH  27  28
ATOM     28  CG  ASP A   4       2.356  39.920  16.203  0.00  0.00    +0.367 C 
ATOM     29  OD2 ASP A   4       1.769  40.507  17.139  0.00  0.00    -0.246 OA
ATOM     30  OD1 ASP A   4       3.536  39.518  16.298  0.00  0.00    -0.246 OA
ENDBRANCH  27  28
ENDBRANCH  24  27
ENDBRANCH  22  24
ENDBRANCH  19  20
BRANCH  19  31
ATOM     31  CB  THR A   3      -0.883  35.402  15.932  0.00  0.00    +0.137 C 
ATOM     32  CG2 THR A   3      -1.556  35.408  14.567  0.00  0.00    +0.034 C 
BRANCH  31  33
ATOM     33  OG1 THR A   3       0.526  35.612  15.779  0.00  0.00    -0.382 OA
ATOM     34  HG1 THR A   3       0.964  35.563  16.665  0.00  0.00    +0.210 HD
ENDBRANCH  31  33
ENDBRANCH  19  31
ENDBRANCH   3  19
TORSDOF 13
REMARK  Name = ../refined-set-2016/3t01/3t01_pocket.pdb
REMARK  130 active torsions:
REMARK  status: ('A' for Active; 'I' for Inactive)
REMARK    1  A    between atoms: _1  and  _3
REMARK    2  A    between atoms: _3  and  _4
REMARK    3  A    between atoms: _3  and  _6
REMARK    4  A    between atoms: _6  and  _7
REMARK    5  A    between atoms: _7  and  _8
REMARK    6  A    between atoms: _8  and  ZN_328
REMARK    7  A    between atoms: _10  and  _12
REMARK    8  A    between atoms: _12  and  _13
REMARK    9  A    between atoms: _16  and  _17
REMARK   10  A    between atoms: _22  and  _24
REMARK   11  A    between atoms: _24  and  _25
REMARK   12  A    between atoms: _24  and  _27
REMARK   13  A    between atoms: _27  and  _28
REMARK   14  A    between atoms: _30  and  _32
REMARK   15  A    between atoms: _32  and  _33
REMARK   16  A    between atoms: _32  and  _35
REMARK   17  A    between atoms: _35  and  _36
REMARK   18  A    between atoms: _42  and  _44
REMARK   19  A    between atoms: _44  and  _45
REMARK   20  A    between atoms: _44  and  _47
REMARK   21  A    between atoms: _47  and  _48
REMARK   22  A    between atoms: _51  and  _53
REMARK   23  A    between atoms: _53  and  _54
REMARK   24  A    between atoms: _53  and  _56
REMARK   25  A    between atoms: _56  and  _57
REMARK   26  A    between atoms: _63  and  _64
REMARK   27  A    between atoms: _69  and  _71
REMARK   28  A    between atoms: _71  and  _72
REMARK   29  A    between atoms: _71  and  _74
REMARK   30  A    between atoms: _74  and  _75
REMARK   31  A    between atoms: _80  and  _82
REMARK   32  A    between atoms: _82  and  _83
REMARK   33  A    between atoms: _82  and  _85
REMARK   34  A    between atoms: _85  and  _86
REMARK   35  A    between atoms: _91  and  _93
REMARK   36  A    between atoms: _93  and  _94
REMARK   37  A    between atoms: _96  and  _98
REMARK   38  A    between atoms: _98  and  _99
REMARK   39  A    between atoms: _98  and  _101
REMARK   40  A    between atoms: _101  and  _102
REMARK   41  A    between atoms: _107  and  _109
REMARK   42  A    between atoms: _109  and  _110
REMARK   43  A    between atoms: _109  and  _112
REMARK   44  A    between atoms: _112  and  _113
REMARK   45  A    between atoms: _113  and  _114
REMARK   46  A    between atoms: _114  and  _115
REMARK   47  A    between atoms: _115  and  _116
REMARK   48  A    between atoms: _120  and  _122
REMARK   49  A    between atoms: _122  and  _123
REMARK   50  A    between atoms: _122  and  _125
REMARK   51  A    between atoms: _125  and  _126
REMARK   52  A    between atoms: _126  and  _127
REMARK   53  A    between atoms: _127  and  _128
REMARK   54  A    between atoms: _128  and  _129
REMARK   55  A    between atoms: _133  and  _135
REMARK   56  A    between atoms: _135  and  _136
REMARK   57  A    between atoms: _135  and  _138
REMARK   58  A    between atoms: _138  and  _139
REMARK   59  A    between atoms: _144  and  _145
REMARK   60  A    between atoms: _147  and  _149
REMARK   61  A    between atoms: _149  and  _150
REMARK   62  A    between atoms: _149  and  _152
REMARK   63  A    between atoms: _152  and  _153
REMARK   64  A    between atoms: _156  and  _158
REMARK   65  A    between atoms: _158  and  _159
REMARK   66  A    between atoms: _158  and  _161
REMARK   67  A    between atoms: _161  and  _162
REMARK   68  A    between atoms: _165  and  _167
REMARK   69  A    between atoms: _167  and  _168
REMARK   70  A    between atoms: _167  and  _170
REMARK   71  A    between atoms: _170  and  _171
REMARK   72  A    between atoms: _171  and  _173
REMARK   73  A    between atoms: _173  and  ZN_329
REMARK   74  A    between atoms: _174  and  _176
REMARK   75  A    between atoms: _176  and  _177
REMARK   76  A    between atoms: _176  and  _179
REMARK   77  A    between atoms: _179  and  _180
REMARK   78  A    between atoms: _185  and  _186
REMARK   79  A    between atoms: _188  and  _190
REMARK   80  A    between atoms: _190  and  _191
REMARK   81  A    between atoms: _190  and  _193
REMARK   82  A    between atoms: _193  and  _194
REMARK   83  A    between atoms: _198  and  ZN_329
REMARK   84  A    between atoms: _199  and  _201
REMARK   85  A    between atoms: _210  and  _211
REMARK   86  A    between atoms: _219  and  _221
REMARK   87  A    between atoms: _221  and  _222
REMARK   88  A    between atoms: _221  and  _224
REMARK   89  A    between atoms: _224  and  _225
REMARK   90  A    between atoms: _225  and  _226
REMARK   91  A    between atoms: _229  and  _230
REMARK   92  A    between atoms: _235  and  _237
REMARK   93  A    between atoms: _237  and  _238
REMARK   94  A    between atoms: _237  and  _240
REMARK   95  A    between atoms: _240  and  _241
REMARK   96  A    between atoms: _244  and  _246
REMARK   97  A    between atoms: _246  and  _247
REMARK   98  A    between atoms: _246  and  _249
REMARK   99  A    between atoms: _249  and  _250
REMARK  100  A    between atoms: _253  and  _255
REMARK  101  A    between atoms: _255  and  _256
REMARK  102  A    between atoms: _255  and  _258
REMARK  103  A    between atoms: _258  and  _259
REMARK  104  A    between atoms: _262  and  _264
REMARK  105  A    between atoms: _264  and  _265
REMARK  106  A    between atoms: _267  and  _269
REMARK  107  A    between atoms: _269  and  _270
REMARK  108  A    between atoms: _273  and  _275
REMARK  109  A    between atoms: _275  and  _276
REMARK  110  A    between atoms: _275  and  _278
REMARK  111  A    between atoms: _278  and  _279
REMARK  112  A    between atoms: _282  and  _284
REMARK  113  A    between atoms: _284  and  _285
REMARK  114  A    between atoms: _287  and  _289
REMARK  115  A    between atoms: _289  and  _290
REMARK  116  A    between atoms: _289  and  _292
REMARK  117  A    between atoms: _292  and  _293
REMARK  118  A    between atoms: _293  and  _294
REMARK  119  A    between atoms: _294  and  _295
REMARK  120  A    between atoms: _304  and  _306
REMARK  121  A    between atoms: _306  and  _307
REMARK  122  A    between atoms: _306  and  _309
REMARK  123  A    between atoms: _309  and  _310
REMARK  124  A    between atoms: _312  and  _314
REMARK  125  A    between atoms: _314  and  _315
REMARK  126  A    between atoms: _314  and  _317
REMARK  127  A    between atoms: _317  and  _318
REMARK  128  A    between atoms: _322  and  ZN_329
REMARK  129  A    between atoms: _323  and  _325
REMARK  130  A    between atoms: _325  and  _326
REMARK                            x       y       z     vdW  Elec       q    Type
REMARK                         _______ _______ _______ _____ _____    ______ ____
ROOT
ATOM      1  C   ALA A   2      -5.077  32.502  13.164  0.00  0.00    +0.241 C 
ATOM      2  N   LEU A   3      -5.246  31.193  13.338  0.00  0.00    -0.297 N 
ATOM      3  H   LEU A   3      -4.415  30.568  13.332  0.00  0.00    +0.150 HD
ATOM      4  O   ALA A   2      -6.010  33.312  13.217  0.00  0.00    -0.273 OA
ENDROOT
BRANCH   1   5
ATOM      5  CA  ALA A   2      -3.648  32.976  12.905  0.00  0.00    +0.149 C 
ATOM      6  CB  ALA A   2      -3.606  33.947  11.722  0.00  0.00    +0.031 C 
BRANCH   5   9
ATOM      7  C   GLY A   1      -1.995  31.318  13.639  0.00  0.00    +0.240 C 
ATOM      8  O   GLY A   1      -1.989  31.722  14.806  0.00  0.00    -0.274 OA
ATOM      9  N   ALA A   2      -2.735  31.864  12.675  0.00  0.00    -0.297 N 
ATOM     10  H   ALA A   2      -2.657  31.478  11.712  0.00  0.00    +0.150 HD
BRANCH   7  11
ATOM     11  CA  GLY A   1      -1.132  30.142  13.222  0.00  0.00    +0.169 C 
BRANCH  11  12
ATOM     12  N   GLY A   1      -1.390  29.751  11.838  0.00  0.00    -0.236 NA
ATOM     13  H   GLY A   1      -0.662  29.941  11.120  0.00  0.00    +0.142 HD
ENDBRANCH  11  12
ENDBRANCH   7  11
ENDBRANCH   5   9
ENDBRANCH   1   5
BRANCH   2  14
ATOM     14  CA  LEU A   3      -6.571  30.616  13.537  0.00  0.00    +0.149 C 
BRANCH  14  15
ATOM     15  C   LEU A   3      -6.864  30.248  14.989  0.00  0.00    +0.241 C 
ATOM     16  N   GLY A   4      -7.755  31.026  15.594  0.00  0.00    -0.296 N 
ATOM     17  H   GLY A   4      -8.142  31.837  15.070  0.00  0.00    +0.150 HD
ATOM     18  O   LEU A   3      -6.297  29.301  15.539  0.00  0.00    -0.273 OA
BRANCH  16  19
ATOM     19  CA  GLY A   4      -8.215  30.797  16.955  0.00  0.00    +0.163 C 
BRANCH  19  20
ATOM     20  C   GLY A   4      -9.725  30.858  17.018  0.00  0.00    +0.229 C 
ATOM     21  O   GLY A   4     -10.388  31.121  16.007  0.00  0.00    -0.286 OA
ENDBRANCH  19  20
ENDBRANCH  16  19
ENDBRANCH  14  15
BRANCH  14  22
ATOM     22  CB  LEU A   3      -6.795  29.421  12.606  0.00  0.00    +0.029 C 
BRANCH  22  23
ATOM     23  CG  LEU A   3      -6.853  29.744  11.108  0.00  0.00    +0.002 C 
ATOM     24  CD2 LEU A   3      -8.036  30.650  10.768  0.00  0.00    +0.000 C 
ATOM     25  CD1 LEU A   3      -6.904  28.463  10.293  0.00  0.00    +0.000 C 
ENDBRANCH  22  23
ENDBRANCH  14  22
ENDBRANCH   2  14
TORSDOF 10
REMARK  Name = ../refined-set-2016/3t01/3t01_pocket.pdb
REMARK  130 active torsions:
REMARK  status: ('A' for Active; 'I' for Inactive)
REMARK    1  A    between atoms: _1  and  _3
REMARK    2  A    between atoms: _3  and  _4
REMARK    3  A    between atoms: _3  and  _6
REMARK    4  A    between atoms: _6  and  _7
REMARK    5  A    between atoms: _7  and  _8
REMARK    6  A    between atoms: _8  and  ZN_328
REMARK    7  A    between atoms: _10  and  _12
REMARK    8  A    between atoms: _12  and  _13
REMARK    9  A    between atoms: _16  and  _17
REMARK   10  A    between atoms: _22  and  _24
REMARK   11  A    between atoms: _24  and  _25
REMARK   12  A    between atoms: _24  and  _27
REMARK   13  A    between atoms: _27  and  _28
REMARK   14  A    between atoms: _30  and  _32
REMARK   15  A    between atoms: _32  and  _33
REMARK   16  A    between atoms: _32  and  _35
REMARK   17  A    between atoms: _35  and  _36
REMARK   18  A    between atoms: _42  and  _44
REMARK   19  A    between atoms: _44  and  _45
REMARK   20  A    between atoms: _44  and  _47
REMARK   21  A    between atoms: _47  and  _48
REMARK   22  A    between atoms: _51  and  _53
REMARK   23  A    between atoms: _53  and  _54
REMARK   24  A    between atoms: _53  and  _56
REMARK   25  A    between atoms: _56  and  _57
REMARK   26  A    between atoms: _63  and  _64
REMARK   27  A    between atoms: _69  and  _71
REMARK   28  A    between atoms: _71  and  _72
REMARK   29  A    between atoms: _71  and  _74
REMARK   30  A    between atoms: _74  and  _75
REMARK   31  A    between atoms: _80  and  _82
REMARK   32  A    between atoms: _82  and  _83
REMARK   33  A    between atoms: _82  and  _85
REMARK   34  A    between atoms: _85  and  _86
REMARK   35  A    between atoms: _91  and  _93
REMARK   36  A    between atoms: _93  and  _94
REMARK   37  A    between atoms: _96  and  _98
REMARK   38  A    between atoms: _98  and  _99
REMARK   39  A    between atoms: _98  and  _101
REMARK   40  A    between atoms: _101  and  _102
REMARK   41  A    between atoms: _107  and  _109
REMARK   42  A    between atoms: _109  and  _110
REMARK   43  A    between atoms: _109  and  _112
REMARK   44  A    between atoms: _112  and  _113
REMARK   45  A    between atoms: _113  and  _114
REMARK   46  A    between atoms: _114  and  _115
REMARK   47  A    between atoms: _115  and  _116
REMARK   48  A    between atoms: _120  and  _122
REMARK   49  A    between atoms: _122  and  _123
REMARK   50  A    between atoms: _122  and  _125
REMARK   51  A    between atoms: _125  and  _126
REMARK   52  A    between atoms: _126  and  _127
REMARK   53  A    between atoms: _127  and  _128
REMARK   54  A    between atoms: _128  and  _129
REMARK   55  A    between atoms: _133  and  _135
REMARK   56  A    between atoms: _135  and  _136
REMARK   57  A    between atoms: _135  and  _138
REMARK   58  A    between atoms: _138  and  _139
REMARK   59  A    between atoms: _144  and  _145
REMARK   60  A    between atoms: _147  and  _149
REMARK   61  A    between atoms: _149  and  _150
REMARK   62  A    between atoms: _149  and  _152
REMARK   63  A    between atoms: _152  and  _153
REMARK   64  A    between atoms: _156  and  _158
REMARK   65  A    between atoms: _158  and  _159
REMARK   66  A    between atoms: _158  and  _161
REMARK   67  A    between atoms: _161  and  _162
REMARK   68  A    between atoms: _165  and  _167
REMARK   69  A    between atoms: _167  and  _168
REMARK   70  A    between atoms: _167  and  _170
REMARK   71  A    between atoms: _170  and  _171
REMARK   72  A    between atoms: _171  and  _173
REMARK   73  A    between atoms: _173  and  ZN_329
REMARK   74  A    between atoms: _174  and  _176
REMARK   75  A    between atoms: _176  and  _177
REMARK   76  A    between atoms: _176  and  _179
REMARK   77  A    between atoms: _179  and  _180
REMARK   78  A    between atoms: _185  and  _186
REMARK   79  A    between atoms: _188  and  _190
REMARK   80  A    between atoms: _190  and  _191
REMARK   81  A    between atoms: _190  and  _193
REMARK   82  A    between atoms: _193  and  _194
REMARK   83  A    between atoms: _198  and  ZN_329
REMARK   84  A    between atoms: _199  and  _201
REMARK   85  A    between atoms: _210  and  _211
REMARK   86  A    between atoms: _219  and  _221
REMARK   87  A    between atoms: _221  and  _222
REMARK   88  A    between atoms: _221  and  _224
REMARK   89  A    between atoms: _224  and  _225
REMARK   90  A    between atoms: _225  and  _226
REMARK   91  A    between atoms: _229  and  _230
REMARK   92  A    between atoms: _235  and  _237
REMARK   93  A    between atoms: _237  and  _238
REMARK   94  A    between atoms: _237  and  _240
REMARK   95  A    between atoms: _240  and  _241
REMARK   96  A    between atoms: _244  and  _246
REMARK   97  A    between atoms: _246  and  _247
REMARK   98  A    between atoms: _246  and  _249
REMARK   99  A    between atoms: _249  and  _250
REMARK  100  A    between atoms: _253  and  _255
REMARK  101  A    between atoms: _255  and  _256
REMARK  102  A    between atoms: _255  and  _258
REMARK  103  A    between atoms: _258  and  _259
REMARK  104  A    between atoms: _262  and  _264
REMARK  105  A    between atoms: _264  and  _265
REMARK  106  A    between atoms: _267  and  _269
REMARK  107  A    between atoms: _269  and  _270
REMARK  108  A    between atoms: _273  and  _275
REMARK  109  A    between atoms: _275  and  _276
REMARK  110  A    between atoms: _275  and  _278
REMARK  111  A    between atoms: _278  and  _279
REMARK  112  A    between atoms: _282  and  _284
REMARK  113  A    between atoms: _284  and  _285
REMARK  114  A    between atoms: _287  and  _289
REMARK  115  A    between atoms: _289  and  _290
REMARK  116  A    between atoms: _289  and  _292
REMARK  117  A    between atoms: _292  and  _293
REMARK  118  A    between atoms: _293  and  _294
REMARK  119  A    between atoms: _294  and  _295
REMARK  120  A    between atoms: _304  and  _306
REMARK  121  A    between atoms: _306  and  _307
REMARK  122  A    between atoms: _306  and  _309
REMARK  123  A    between atoms: _309  and  _310
REMARK  124  A    between atoms: _312  and  _314
REMARK  125  A    between atoms: _314  and  _315
REMARK  126  A    between atoms: _314  and  _317
REMARK  127  A    between atoms: _317  and  _318
REMARK  128  A    between atoms: _322  and  ZN_329
REMARK  129  A    between atoms: _323  and  _325
REMARK  130  A    between atoms: _325  and  _326
REMARK                            x       y       z     vdW  Elec       q    Type
REMARK                         _______ _______ _______ _____ _____    ______ ____
ROOT
ATOM      1  O   HOH     1       3.022  36.055  25.093  0.00  0.00    +0.000 OA
ENDROOT
TORSDOF 0
REMARK  Name = ../refined-set-2016/3t01/3t01_pocket.pdb
REMARK  130 active torsions:
REMARK  status: ('A' for Active; 'I' for Inactive)
REMARK    1  A    between atoms: _1  and  _3
REMARK    2  A    between atoms: _3  and  _4
REMARK    3  A    between atoms: _3  and  _6
REMARK    4  A    between atoms: _6  and  _7
REMARK    5  A    between atoms: _7  and  _8
REMARK    6  A    between atoms: _8  and  ZN_328
REMARK    7  A    between atoms: _10  and  _12
REMARK    8  A    between atoms: _12  and  _13
REMARK    9  A    between atoms: _16  and  _17
REMARK   10  A    between atoms: _22  and  _24
REMARK   11  A    between atoms: _24  and  _25
REMARK   12  A    between atoms: _24  and  _27
REMARK   13  A    between atoms: _27  and  _28
REMARK   14  A    between atoms: _30  and  _32
REMARK   15  A    between atoms: _32  and  _33
REMARK   16  A    between atoms: _32  and  _35
REMARK   17  A    between atoms: _35  and  _36
REMARK   18  A    between atoms: _42  and  _44
REMARK   19  A    between atoms: _44  and  _45
REMARK   20  A    between atoms: _44  and  _47
REMARK   21  A    between atoms: _47  and  _48
REMARK   22  A    between atoms: _51  and  _53
REMARK   23  A    between atoms: _53  and  _54
REMARK   24  A    between atoms: _53  and  _56
REMARK   25  A    between atoms: _56  and  _57
REMARK   26  A    between atoms: _63  and  _64
REMARK   27  A    between atoms: _69  and  _71
REMARK   28  A    between atoms: _71  and  _72
REMARK   29  A    between atoms: _71  and  _74
REMARK   30  A    between atoms: _74  and  _75
REMARK   31  A    between atoms: _80  and  _82
REMARK   32  A    between atoms: _82  and  _83
REMARK   33  A    between atoms: _82  and  _85
REMARK   34  A    between atoms: _85  and  _86
REMARK   35  A    between atoms: _91  and  _93
REMARK   36  A    between atoms: _93  and  _94
REMARK   37  A    between atoms: _96  and  _98
REMARK   38  A    between atoms: _98  and  _99
REMARK   39  A    between atoms: _98  and  _101
REMARK   40  A    between atoms: _101  and  _102
REMARK   41  A    between atoms: _107  and  _109
REMARK   42  A    between atoms: _109  and  _110
REMARK   43  A    between atoms: _109  and  _112
REMARK   44  A    between atoms: _112  and  _113
REMARK   45  A    between atoms: _113  and  _114
REMARK   46  A    between atoms: _114  and  _115
REMARK   47  A    between atoms: _115  and  _116
REMARK   48  A    between atoms: _120  and  _122
REMARK   49  A    between atoms: _122  and  _123
REMARK   50  A    between atoms: _122  and  _125
REMARK   51  A    between atoms: _125  and  _126
REMARK   52  A    between atoms: _126  and  _127
REMARK   53  A    between atoms: _127  and  _128
REMARK   54  A    between atoms: _128  and  _129
REMARK   55  A    between atoms: _133  and  _135
REMARK   56  A    between atoms: _135  and  _136
REMARK   57  A    between atoms: _135  and  _138
REMARK   58  A    between atoms: _138  and  _139
REMARK   59  A    between atoms: _144  and  _145
REMARK   60  A    between atoms: _147  and  _149
REMARK   61  A    between atoms: _149  and  _150
REMARK   62  A    between atoms: _149  and  _152
REMARK   63  A    between atoms: _152  and  _153
REMARK   64  A    between atoms: _156  and  _158
REMARK   65  A    between atoms: _158  and  _159
REMARK   66  A    between atoms: _158  and  _161
REMARK   67  A    between atoms: _161  and  _162
REMARK   68  A    between atoms: _165  and  _167
REMARK   69  A    between atoms: _167  and  _168
REMARK   70  A    between atoms: _167  and  _170
REMARK   71  A    between atoms: _170  and  _171
REMARK   72  A    between atoms: _171  and  _173
REMARK   73  A    between atoms: _173  and  ZN_329
REMARK   74  A    between atoms: _174  and  _176
REMARK   75  A    between atoms: _176  and  _177
REMARK   76  A    between atoms: _176  and  _179
REMARK   77  A    between atoms: _179  and  _180
REMARK   78  A    between atoms: _185  and  _186
REMARK   79  A    between atoms: _188  and  _190
REMARK   80  A    between atoms: _190  and  _191
REMARK   81  A    between atoms: _190  and  _193
REMARK   82  A    between atoms: _193  and  _194
REMARK   83  A    between atoms: _198  and  ZN_329
REMARK   84  A    between atoms: _199  and  _201
REMARK   85  A    between atoms: _210  and  _211
REMARK   86  A    between atoms: _219  and  _221
REMARK   87  A    between atoms: _221  and  _222
REMARK   88  A    between atoms: _221  and  _224
REMARK   89  A    between atoms: _224  and  _225
REMARK   90  A    between atoms: _225  and  _226
REMARK   91  A    between atoms: _229  and  _230
REMARK   92  A    between atoms: _235  and  _237
REMARK   93  A    between atoms: _237  and  _238
REMARK   94  A    between atoms: _237  and  _240
REMARK   95  A    between atoms: _240  and  _241
REMARK   96  A    between atoms: _244  and  _246
REMARK   97  A    between atoms: _246  and  _247
REMARK   98  A    between atoms: _246  and  _249
REMARK   99  A    between atoms: _249  and  _250
REMARK  100  A    between atoms: _253  and  _255
REMARK  101  A    between atoms: _255  and  _256
REMARK  102  A    between atoms: _255  and  _258
REMARK  103  A    between atoms: _258  and  _259
REMARK  104  A    between atoms: _262  and  _264
REMARK  105  A    between atoms: _264  and  _265
REMARK  106  A    between atoms: _267  and  _269
REMARK  107  A    between atoms: _269  and  _270
REMARK  108  A    between atoms: _273  and  _275
REMARK  109  A    between atoms: _275  and  _276
REMARK  110  A    between atoms: _275  and  _278
REMARK  111  A    between atoms: _278  and  _279
REMARK  112  A    between atoms: _282  and  _284
REMARK  113  A    between atoms: _284  and  _285
REMARK  114  A    between atoms: _287  and  _289
REMARK  115  A    between atoms: _289  and  _290
REMARK  116  A    between atoms: _289  and  _292
REMARK  117  A    between atoms: _292  and  _293
REMARK  118  A    between atoms: _293  and  _294
REMARK  119  A    between atoms: _294  and  _295
REMARK  120  A    between atoms: _304  and  _306
REMARK  121  A    between atoms: _306  and  _307
REMARK  122  A    between atoms: _306  and  _309
REMARK  123  A    between atoms: _309  and  _310
REMARK  124  A    between atoms: _312  and  _314
REMARK  125  A    between atoms: _314  and  _315
REMARK  126  A    between atoms: _314  and  _317
REMARK  127  A    between atoms: _317  and  _318
REMARK  128  A    between atoms: _322  and  ZN_329
REMARK  129  A    between atoms: _323  and  _325
REMARK  130  A    between atoms: _325  and  _326
REMARK                            x       y       z     vdW  Elec       q    Type
REMARK                         _______ _______ _______ _____ _____    ______ ____
ROOT
ATOM      1  O   HOH     1       2.828  30.155  23.299  0.00  0.00    +0.000 OA
ENDROOT
TORSDOF 0
REMARK  Name = ../refined-set-2016/3t01/3t01_pocket.pdb
REMARK  130 active torsions:
REMARK  status: ('A' for Active; 'I' for Inactive)
REMARK    1  A    between atoms: _1  and  _3
REMARK    2  A    between atoms: _3  and  _4
REMARK    3  A    between atoms: _3  and  _6
REMARK    4  A    between atoms: _6  and  _7
REMARK    5  A    between atoms: _7  and  _8
REMARK    6  A    between atoms: _8  and  ZN_328
REMARK    7  A    between atoms: _10  and  _12
REMARK    8  A    between atoms: _12  and  _13
REMARK    9  A    between atoms: _16  and  _17
REMARK   10  A    between atoms: _22  and  _24
REMARK   11  A    between atoms: _24  and  _25
REMARK   12  A    between atoms: _24  and  _27
REMARK   13  A    between atoms: _27  and  _28
REMARK   14  A    between atoms: _30  and  _32
REMARK   15  A    between atoms: _32  and  _33
REMARK   16  A    between atoms: _32  and  _35
REMARK   17  A    between atoms: _35  and  _36
REMARK   18  A    between atoms: _42  and  _44
REMARK   19  A    between atoms: _44  and  _45
REMARK   20  A    between atoms: _44  and  _47
REMARK   21  A    between atoms: _47  and  _48
REMARK   22  A    between atoms: _51  and  _53
REMARK   23  A    between atoms: _53  and  _54
REMARK   24  A    between atoms: _53  and  _56
REMARK   25  A    between atoms: _56  and  _57
REMARK   26  A    between atoms: _63  and  _64
REMARK   27  A    between atoms: _69  and  _71
REMARK   28  A    between atoms: _71  and  _72
REMARK   29  A    between atoms: _71  and  _74
REMARK   30  A    between atoms: _74  and  _75
REMARK   31  A    between atoms: _80  and  _82
REMARK   32  A    between atoms: _82  and  _83
REMARK   33  A    between atoms: _82  and  _85
REMARK   34  A    between atoms: _85  and  _86
REMARK   35  A    between atoms: _91  and  _93
REMARK   36  A    between atoms: _93  and  _94
REMARK   37  A    between atoms: _96  and  _98
REMARK   38  A    between atoms: _98  and  _99
REMARK   39  A    between atoms: _98  and  _101
REMARK   40  A    between atoms: _101  and  _102
REMARK   41  A    between atoms: _107  and  _109
REMARK   42  A    between atoms: _109  and  _110
REMARK   43  A    between atoms: _109  and  _112
REMARK   44  A    between atoms: _112  and  _113
REMARK   45  A    between atoms: _113  and  _114
REMARK   46  A    between atoms: _114  and  _115
REMARK   47  A    between atoms: _115  and  _116
REMARK   48  A    between atoms: _120  and  _122
REMARK   49  A    between atoms: _122  and  _123
REMARK   50  A    between atoms: _122  and  _125
REMARK   51  A    between atoms: _125  and  _126
REMARK   52  A    between atoms: _126  and  _127
REMARK   53  A    between atoms: _127  and  _128
REMARK   54  A    between atoms: _128  and  _129
REMARK   55  A    between atoms: _133  and  _135
REMARK   56  A    between atoms: _135  and  _136
REMARK   57  A    between atoms: _135  and  _138
REMARK   58  A    between atoms: _138  and  _139
REMARK   59  A    between atoms: _144  and  _145
REMARK   60  A    between atoms: _147  and  _149
REMARK   61  A    between atoms: _149  and  _150
REMARK   62  A    between atoms: _149  and  _152
REMARK   63  A    between atoms: _152  and  _153
REMARK   64  A    between atoms: _156  and  _158
REMARK   65  A    between atoms: _158  and  _159
REMARK   66  A    between atoms: _158  and  _161
REMARK   67  A    between atoms: _161  and  _162
REMARK   68  A    between atoms: _165  and  _167
REMARK   69  A    between atoms: _167  and  _168
REMARK   70  A    between atoms: _167  and  _170
REMARK   71  A    between atoms: _170  and  _171
REMARK   72  A    between atoms: _171  and  _173
REMARK   73  A    between atoms: _173  and  ZN_329
REMARK   74  A    between atoms: _174  and  _176
REMARK   75  A    between atoms: _176  and  _177
REMARK   76  A    between atoms: _176  and  _179
REMARK   77  A    between atoms: _179  and  _180
REMARK   78  A    between atoms: _185  and  _186
REMARK   79  A    between atoms: _188  and  _190
REMARK   80  A    between atoms: _190  and  _191
REMARK   81  A    between atoms: _190  and  _193
REMARK   82  A    between atoms: _193  and  _194
REMARK   83  A    between atoms: _198  and  ZN_329
REMARK   84  A    between atoms: _199  and  _201
REMARK   85  A    between atoms: _210  and  _211
REMARK   86  A    between atoms: _219  and  _221
REMARK   87  A    between atoms: _221  and  _222
REMARK   88  A    between atoms: _221  and  _224
REMARK   89  A    between atoms: _224  and  _225
REMARK   90  A    between atoms: _225  and  _226
REMARK   91  A    between atoms: _229  and  _230
REMARK   92  A    between atoms: _235  and  _237
REMARK   93  A    between atoms: _237  and  _238
REMARK   94  A    between atoms: _237  and  _240
REMARK   95  A    between atoms: _240  and  _241
REMARK   96  A    between atoms: _244  and  _246
REMARK   97  A    between atoms: _246  and  _247
REMARK   98  A    between atoms: _246  and  _249
REMARK   99  A    between atoms: _249  and  _250
REMARK  100  A    between atoms: _253  and  _255
REMARK  101  A    between atoms: _255  and  _256
REMARK  102  A    between atoms: _255  and  _258
REMARK  103  A    between atoms: _258  and  _259
REMARK  104  A    between atoms: _262  and  _264
REMARK  105  A    between atoms: _264  and  _265
REMARK  106  A    between atoms: _267  and  _269
REMARK  107  A    between atoms: _269  and  _270
REMARK  108  A    between atoms: _273  and  _275
REMARK  109  A    between atoms: _275  and  _276
REMARK  110  A    between atoms: _275  and  _278
REMARK  111  A    between atoms: _278  and  _279
REMARK  112  A    between atoms: _282  and  _284
REMARK  113  A    between atoms: _284  and  _285
REMARK  114  A    between atoms: _287  and  _289
REMARK  115  A    between atoms: _289  and  _290
REMARK  116  A    between atoms: _289  and  _292
REMARK  117  A    between atoms: _292  and  _293
REMARK  118  A    between atoms: _293  and  _294
REMARK  119  A    between atoms: _294  and  _295
REMARK  120  A    between atoms: _304  and  _306
REMARK  121  A    between atoms: _306  and  _307
REMARK  122  A    between atoms: _306  and  _309
REMARK  123  A    between atoms: _309  and  _310
REMARK  124  A    between atoms: _312  and  _314
REMARK  125  A    between atoms: _314  and  _315
REMARK  126  A    between atoms: _314  and  _317
REMARK  127  A    between atoms: _317  and  _318
REMARK  128  A    between atoms: _322  and  ZN_329
REMARK  129  A    between atoms: _323  and  _325
REMARK  130  A    between atoms: _325  and  _326
REMARK                            x       y       z     vdW  Elec       q    Type
REMARK                         _______ _______ _______ _____ _____    ______ ____
ROOT
ATOM      1  O   HOH     1      -3.360  28.313  15.346  0.00  0.00    +0.000 OA
ENDROOT
TORSDOF 0
REMARK  Name = ../refined-set-2016/3t01/3t01_pocket.pdb
REMARK  130 active torsions:
REMARK  status: ('A' for Active; 'I' for Inactive)
REMARK    1  A    between atoms: _1  and  _3
REMARK    2  A    between atoms: _3  and  _4
REMARK    3  A    between atoms: _3  and  _6
REMARK    4  A    between atoms: _6  and  _7
REMARK    5  A    between atoms: _7  and  _8
REMARK    6  A    between atoms: _8  and  ZN_328
REMARK    7  A    between atoms: _10  and  _12
REMARK    8  A    between atoms: _12  and  _13
REMARK    9  A    between atoms: _16  and  _17
REMARK   10  A    between atoms: _22  and  _24
REMARK   11  A    between atoms: _24  and  _25
REMARK   12  A    between atoms: _24  and  _27
REMARK   13  A    between atoms: _27  and  _28
REMARK   14  A    between atoms: _30  and  _32
REMARK   15  A    between atoms: _32  and  _33
REMARK   16  A    between atoms: _32  and  _35
REMARK   17  A    between atoms: _35  and  _36
REMARK   18  A    between atoms: _42  and  _44
REMARK   19  A    between atoms: _44  and  _45
REMARK   20  A    between atoms: _44  and  _47
REMARK   21  A    between atoms: _47  and  _48
REMARK   22  A    between atoms: _51  and  _53
REMARK   23  A    between atoms: _53  and  _54
REMARK   24  A    between atoms: _53  and  _56
REMARK   25  A    between atoms: _56  and  _57
REMARK   26  A    between atoms: _63  and  _64
REMARK   27  A    between atoms: _69  and  _71
REMARK   28  A    between atoms: _71  and  _72
REMARK   29  A    between atoms: _71  and  _74
REMARK   30  A    between atoms: _74  and  _75
REMARK   31  A    between atoms: _80  and  _82
REMARK   32  A    between atoms: _82  and  _83
REMARK   33  A    between atoms: _82  and  _85
REMARK   34  A    between atoms: _85  and  _86
REMARK   35  A    between atoms: _91  and  _93
REMARK   36  A    between atoms: _93  and  _94
REMARK   37  A    between atoms: _96  and  _98
REMARK   38  A    between atoms: _98  and  _99
REMARK   39  A    between atoms: _98  and  _101
REMARK   40  A    between atoms: _101  and  _102
REMARK   41  A    between atoms: _107  and  _109
REMARK   42  A    between atoms: _109  and  _110
REMARK   43  A    between atoms: _109  and  _112
REMARK   44  A    between atoms: _112  and  _113
REMARK   45  A    between atoms: _113  and  _114
REMARK   46  A    between atoms: _114  and  _115
REMARK   47  A    between atoms: _115  and  _116
REMARK   48  A    between atoms: _120  and  _122
REMARK   49  A    between atoms: _122  and  _123
REMARK   50  A    between atoms: _122  and  _125
REMARK   51  A    between atoms: _125  and  _126
REMARK   52  A    between atoms: _126  and  _127
REMARK   53  A    between atoms: _127  and  _128
REMARK   54  A    between atoms: _128  and  _129
REMARK   55  A    between atoms: _133  and  _135
REMARK   56  A    between atoms: _135  and  _136
REMARK   57  A    between atoms: _135  and  _138
REMARK   58  A    between atoms: _138  and  _139
REMARK   59  A    between atoms: _144  and  _145
REMARK   60  A    between atoms: _147  and  _149
REMARK   61  A    between atoms: _149  and  _150
REMARK   62  A    between atoms: _149  and  _152
REMARK   63  A    between atoms: _152  and  _153
REMARK   64  A    between atoms: _156  and  _158
REMARK   65  A    between atoms: _158  and  _159
REMARK   66  A    between atoms: _158  and  _161
REMARK   67  A    between atoms: _161  and  _162
REMARK   68  A    between atoms: _165  and  _167
REMARK   69  A    between atoms: _167  and  _168
REMARK   70  A    between atoms: _167  and  _170
REMARK   71  A    between atoms: _170  and  _171
REMARK   72  A    between atoms: _171  and  _173
REMARK   73  A    between atoms: _173  and  ZN_329
REMARK   74  A    between atoms: _174  and  _176
REMARK   75  A    between atoms: _176  and  _177
REMARK   76  A    between atoms: _176  and  _179
REMARK   77  A    between atoms: _179  and  _180
REMARK   78  A    between atoms: _185  and  _186
REMARK   79  A    between atoms: _188  and  _190
REMARK   80  A    between atoms: _190  and  _191
REMARK   81  A    between atoms: _190  and  _193
REMARK   82  A    between atoms: _193  and  _194
REMARK   83  A    between atoms: _198  and  ZN_329
REMARK   84  A    between atoms: _199  and  _201
REMARK   85  A    between atoms: _210  and  _211
REMARK   86  A    between atoms: _219  and  _221
REMARK   87  A    between atoms: _221  and  _222
REMARK   88  A    between atoms: _221  and  _224
REMARK   89  A    between atoms: _224  and  _225
REMARK   90  A    between atoms: _225  and  _226
REMARK   91  A    between atoms: _229  and  _230
REMARK   92  A    between atoms: _235  and  _237
REMARK   93  A    between atoms: _237  and  _238
REMARK   94  A    between atoms: _237  and  _240
REMARK   95  A    between atoms: _240  and  _241
REMARK   96  A    between atoms: _244  and  _246
REMARK   97  A    between atoms: _246  and  _247
REMARK   98  A    between atoms: _246  and  _249
REMARK   99  A    between atoms: _249  and  _250
REMARK  100  A    between atoms: _253  and  _255
REMARK  101  A    between atoms: _255  and  _256
REMARK  102  A    between atoms: _255  and  _258
REMARK  103  A    between atoms: _258  and  _259
REMARK  104  A    between atoms: _262  and  _264
REMARK  105  A    between atoms: _264  and  _265
REMARK  106  A    between atoms: _267  and  _269
REMARK  107  A    between atoms: _269  and  _270
REMARK  108  A    between atoms: _273  and  _275
REMARK  109  A    between atoms: _275  and  _276
REMARK  110  A    between atoms: _275  and  _278
REMARK  111  A    between atoms: _278  and  _279
REMARK  112  A    between atoms: _282  and  _284
REMARK  113  A    between atoms: _284  and  _285
REMARK  114  A    between atoms: _287  and  _289
REMARK  115  A    between atoms: _289  and  _290
REMARK  116  A    between atoms: _289  and  _292
REMARK  117  A    between atoms: _292  and  _293
REMARK  118  A    between atoms: _293  and  _294
REMARK  119  A    between atoms: _294  and  _295
REMARK  120  A    between atoms: _304  and  _306
REMARK  121  A    between atoms: _306  and  _307
REMARK  122  A    between atoms: _306  and  _309
REMARK  123  A    between atoms: _309  and  _310
REMARK  124  A    between atoms: _312  and  _314
REMARK  125  A    between atoms: _314  and  _315
REMARK  126  A    between atoms: _314  and  _317
REMARK  127  A    between atoms: _317  and  _318
REMARK  128  A    between atoms: _322  and  ZN_329
REMARK  129  A    between atoms: _323  and  _325
REMARK  130  A    between atoms: _325  and  _326
REMARK                            x       y       z     vdW  Elec       q    Type
REMARK                         _______ _______ _______ _____ _____    ______ ____
ROOT
ATOM      1  O   HOH     1      -1.872  36.068  22.793  0.00  0.00    +0.000 OA
ENDROOT
TORSDOF 0
REMARK  Name = ../refined-set-2016/3t01/3t01_pocket.pdb
REMARK  130 active torsions:
REMARK  status: ('A' for Active; 'I' for Inactive)
REMARK    1  A    between atoms: _1  and  _3
REMARK    2  A    between atoms: _3  and  _4
REMARK    3  A    between atoms: _3  and  _6
REMARK    4  A    between atoms: _6  and  _7
REMARK    5  A    between atoms: _7  and  _8
REMARK    6  A    between atoms: _8  and  ZN_328
REMARK    7  A    between atoms: _10  and  _12
REMARK    8  A    between atoms: _12  and  _13
REMARK    9  A    between atoms: _16  and  _17
REMARK   10  A    between atoms: _22  and  _24
REMARK   11  A    between atoms: _24  and  _25
REMARK   12  A    between atoms: _24  and  _27
REMARK   13  A    between atoms: _27  and  _28
REMARK   14  A    between atoms: _30  and  _32
REMARK   15  A    between atoms: _32  and  _33
REMARK   16  A    between atoms: _32  and  _35
REMARK   17  A    between atoms: _35  and  _36
REMARK   18  A    between atoms: _42  and  _44
REMARK   19  A    between atoms: _44  and  _45
REMARK   20  A    between atoms: _44  and  _47
REMARK   21  A    between atoms: _47  and  _48
REMARK   22  A    between atoms: _51  and  _53
REMARK   23  A    between atoms: _53  and  _54
REMARK   24  A    between atoms: _53  and  _56
REMARK   25  A    between atoms: _56  and  _57
REMARK   26  A    between atoms: _63  and  _64
REMARK   27  A    between atoms: _69  and  _71
REMARK   28  A    between atoms: _71  and  _72
REMARK   29  A    between atoms: _71  and  _74
REMARK   30  A    between atoms: _74  and  _75
REMARK   31  A    between atoms: _80  and  _82
REMARK   32  A    between atoms: _82  and  _83
REMARK   33  A    between atoms: _82  and  _85
REMARK   34  A    between atoms: _85  and  _86
REMARK   35  A    between atoms: _91  and  _93
REMARK   36  A    between atoms: _93  and  _94
REMARK   37  A    between atoms: _96  and  _98
REMARK   38  A    between atoms: _98  and  _99
REMARK   39  A    between atoms: _98  and  _101
REMARK   40  A    between atoms: _101  and  _102
REMARK   41  A    between atoms: _107  and  _109
REMARK   42  A    between atoms: _109  and  _110
REMARK   43  A    between atoms: _109  and  _112
REMARK   44  A    between atoms: _112  and  _113
REMARK   45  A    between atoms: _113  and  _114
REMARK   46  A    between atoms: _114  and  _115
REMARK   47  A    between atoms: _115  and  _116
REMARK   48  A    between atoms: _120  and  _122
REMARK   49  A    between atoms: _122  and  _123
REMARK   50  A    between atoms: _122  and  _125
REMARK   51  A    between atoms: _125  and  _126
REMARK   52  A    between atoms: _126  and  _127
REMARK   53  A    between atoms: _127  and  _128
REMARK   54  A    between atoms: _128  and  _129
REMARK   55  A    between atoms: _133  and  _135
REMARK   56  A    between atoms: _135  and  _136
REMARK   57  A    between atoms: _135  and  _138
REMARK   58  A    between atoms: _138  and  _139
REMARK   59  A    between atoms: _144  and  _145
REMARK   60  A    between atoms: _147  and  _149
REMARK   61  A    between atoms: _149  and  _150
REMARK   62  A    between atoms: _149  and  _152
REMARK   63  A    between atoms: _152  and  _153
REMARK   64  A    between atoms: _156  and  _158
REMARK   65  A    between atoms: _158  and  _159
REMARK   66  A    between atoms: _158  and  _161
REMARK   67  A    between atoms: _161  and  _162
REMARK   68  A    between atoms: _165  and  _167
REMARK   69  A    between atoms: _167  and  _168
REMARK   70  A    between atoms: _167  and  _170
REMARK   71  A    between atoms: _170  and  _171
REMARK   72  A    between atoms: _171  and  _173
REMARK   73  A    between atoms: _173  and  ZN_329
REMARK   74  A    between atoms: _174  and  _176
REMARK   75  A    between atoms: _176  and  _177
REMARK   76  A    between atoms: _176  and  _179
REMARK   77  A    between atoms: _179  and  _180
REMARK   78  A    between atoms: _185  and  _186
REMARK   79  A    between atoms: _188  and  _190
REMARK   80  A    between atoms: _190  and  _191
REMARK   81  A    between atoms: _190  and  _193
REMARK   82  A    between atoms: _193  and  _194
REMARK   83  A    between atoms: _198  and  ZN_329
REMARK   84  A    between atoms: _199  and  _201
REMARK   85  A    between atoms: _210  and  _211
REMARK   86  A    between atoms: _219  and  _221
REMARK   87  A    between atoms: _221  and  _222
REMARK   88  A    between atoms: _221  and  _224
REMARK   89  A    between atoms: _224  and  _225
REMARK   90  A    between atoms: _225  and  _226
REMARK   91  A    between atoms: _229  and  _230
REMARK   92  A    between atoms: _235  and  _237
REMARK   93  A    between atoms: _237  and  _238
REMARK   94  A    between atoms: _237  and  _240
REMARK   95  A    between atoms: _240  and  _241
REMARK   96  A    between atoms: _244  and  _246
REMARK   97  A    between atoms: _246  and  _247
REMARK   98  A    between atoms: _246  and  _249
REMARK   99  A    between atoms: _249  and  _250
REMARK  100  A    between atoms: _253  and  _255
REMARK  101  A    between atoms: _255  and  _256
REMARK  102  A    between atoms: _255  and  _258
REMARK  103  A    between atoms: _258  and  _259
REMARK  104  A    between atoms: _262  and  _264
REMARK  105  A    between atoms: _264  and  _265
REMARK  106  A    between atoms: _267  and  _269
REMARK  107  A    between atoms: _269  and  _270
REMARK  108  A    between atoms: _273  and  _275
REMARK  109  A    between atoms: _275  and  _276
REMARK  110  A    between atoms: _275  and  _278
REMARK  111  A    between atoms: _278  and  _279
REMARK  112  A    between atoms: _282  and  _284
REMARK  113  A    between atoms: _284  and  _285
REMARK  114  A    between atoms: _287  and  _289
REMARK  115  A    between atoms: _289  and  _290
REMARK  116  A    between atoms: _289  and  _292
REMARK  117  A    between atoms: _292  and  _293
REMARK  118  A    between atoms: _293  and  _294
REMARK  119  A    between atoms: _294  and  _295
REMARK  120  A    between atoms: _304  and  _306
REMARK  121  A    between atoms: _306  and  _307
REMARK  122  A    between atoms: _306  and  _309
REMARK  123  A    between atoms: _309  and  _310
REMARK  124  A    between atoms: _312  and  _314
REMARK  125  A    between atoms: _314  and  _315
REMARK  126  A    between atoms: _314  and  _317
REMARK  127  A    between atoms: _317  and  _318
REMARK  128  A    between atoms: _322  and  ZN_329
REMARK  129  A    between atoms: _323  and  _325
REMARK  130  A    between atoms: _325  and  _326
REMARK                            x       y       z     vdW  Elec       q    Type
REMARK                         _______ _______ _______ _____ _____    ______ ____
ROOT
ATOM      1  O   HOH     1       6.922  32.183  26.648  0.00  0.00    +0.000 OA
ENDROOT
TORSDOF 0
REMARK  Name = ../refined-set-2016/3t01/3t01_pocket.pdb
REMARK  130 active torsions:
REMARK  status: ('A' for Active; 'I' for Inactive)
REMARK    1  A    between atoms: _1  and  _3
REMARK    2  A    between atoms: _3  and  _4
REMARK    3  A    between atoms: _3  and  _6
REMARK    4  A    between atoms: _6  and  _7
REMARK    5  A    between atoms: _7  and  _8
REMARK    6  A    between atoms: _8  and  ZN_328
REMARK    7  A    between atoms: _10  and  _12
REMARK    8  A    between atoms: _12  and  _13
REMARK    9  A    between atoms: _16  and  _17
REMARK   10  A    between atoms: _22  and  _24
REMARK   11  A    between atoms: _24  and  _25
REMARK   12  A    between atoms: _24  and  _27
REMARK   13  A    between atoms: _27  and  _28
REMARK   14  A    between atoms: _30  and  _32
REMARK   15  A    between atoms: _32  and  _33
REMARK   16  A    between atoms: _32  and  _35
REMARK   17  A    between atoms: _35  and  _36
REMARK   18  A    between atoms: _42  and  _44
REMARK   19  A    between atoms: _44  and  _45
REMARK   20  A    between atoms: _44  and  _47
REMARK   21  A    between atoms: _47  and  _48
REMARK   22  A    between atoms: _51  and  _53
REMARK   23  A    between atoms: _53  and  _54
REMARK   24  A    between atoms: _53  and  _56
REMARK   25  A    between atoms: _56  and  _57
REMARK   26  A    between atoms: _63  and  _64
REMARK   27  A    between atoms: _69  and  _71
REMARK   28  A    between atoms: _71  and  _72
REMARK   29  A    between atoms: _71  and  _74
REMARK   30  A    between atoms: _74  and  _75
REMARK   31  A    between atoms: _80  and  _82
REMARK   32  A    between atoms: _82  and  _83
REMARK   33  A    between atoms: _82  and  _85
REMARK   34  A    between atoms: _85  and  _86
REMARK   35  A    between atoms: _91  and  _93
REMARK   36  A    between atoms: _93  and  _94
REMARK   37  A    between atoms: _96  and  _98
REMARK   38  A    between atoms: _98  and  _99
REMARK   39  A    between atoms: _98  and  _101
REMARK   40  A    between atoms: _101  and  _102
REMARK   41  A    between atoms: _107  and  _109
REMARK   42  A    between atoms: _109  and  _110
REMARK   43  A    between atoms: _109  and  _112
REMARK   44  A    between atoms: _112  and  _113
REMARK   45  A    between atoms: _113  and  _114
REMARK   46  A    between atoms: _114  and  _115
REMARK   47  A    between atoms: _115  and  _116
REMARK   48  A    between atoms: _120  and  _122
REMARK   49  A    between atoms: _122  and  _123
REMARK   50  A    between atoms: _122  and  _125
REMARK   51  A    between atoms: _125  and  _126
REMARK   52  A    between atoms: _126  and  _127
REMARK   53  A    between atoms: _127  and  _128
REMARK   54  A    between atoms: _128  and  _129
REMARK   55  A    between atoms: _133  and  _135
REMARK   56  A    between atoms: _135  and  _136
REMARK   57  A    between atoms: _135  and  _138
REMARK   58  A    between atoms: _138  and  _139
REMARK   59  A    between atoms: _144  and  _145
REMARK   60  A    between atoms: _147  and  _149
REMARK   61  A    between atoms: _149  and  _150
REMARK   62  A    between atoms: _149  and  _152
REMARK   63  A    between atoms: _152  and  _153
REMARK   64  A    between atoms: _156  and  _158
REMARK   65  A    between atoms: _158  and  _159
REMARK   66  A    between atoms: _158  and  _161
REMARK   67  A    between atoms: _161  and  _162
REMARK   68  A    between atoms: _165  and  _167
REMARK   69  A    between atoms: _167  and  _168
REMARK   70  A    between atoms: _167  and  _170
REMARK   71  A    between atoms: _170  and  _171
REMARK   72  A    between atoms: _171  and  _173
REMARK   73  A    between atoms: _173  and  ZN_329
REMARK   74  A    between atoms: _174  and  _176
REMARK   75  A    between atoms: _176  and  _177
REMARK   76  A    between atoms: _176  and  _179
REMARK   77  A    between atoms: _179  and  _180
REMARK   78  A    between atoms: _185  and  _186
REMARK   79  A    between atoms: _188  and  _190
REMARK   80  A    between atoms: _190  and  _191
REMARK   81  A    between atoms: _190  and  _193
REMARK   82  A    between atoms: _193  and  _194
REMARK   83  A    between atoms: _198  and  ZN_329
REMARK   84  A    between atoms: _199  and  _201
REMARK   85  A    between atoms: _210  and  _211
REMARK   86  A    between atoms: _219  and  _221
REMARK   87  A    between atoms: _221  and  _222
REMARK   88  A    between atoms: _221  and  _224
REMARK   89  A    between atoms: _224  and  _225
REMARK   90  A    between atoms: _225  and  _226
REMARK   91  A    between atoms: _229  and  _230
REMARK   92  A    between atoms: _235  and  _237
REMARK   93  A    between atoms: _237  and  _238
REMARK   94  A    between atoms: _237  and  _240
REMARK   95  A    between atoms: _240  and  _241
REMARK   96  A    between atoms: _244  and  _246
REMARK   97  A    between atoms: _246  and  _247
REMARK   98  A    between atoms: _246  and  _249
REMARK   99  A    between atoms: _249  and  _250
REMARK  100  A    between atoms: _253  and  _255
REMARK  101  A    between atoms: _255  and  _256
REMARK  102  A    between atoms: _255  and  _258
REMARK  103  A    between atoms: _258  and  _259
REMARK  104  A    between atoms: _262  and  _264
REMARK  105  A    between atoms: _264  and  _265
REMARK  106  A    between atoms: _267  and  _269
REMARK  107  A    between atoms: _269  and  _270
REMARK  108  A    between atoms: _273  and  _275
REMARK  109  A    between atoms: _275  and  _276
REMARK  110  A    between atoms: _275  and  _278
REMARK  111  A    between atoms: _278  and  _279
REMARK  112  A    between atoms: _282  and  _284
REMARK  113  A    between atoms: _284  and  _285
REMARK  114  A    between atoms: _287  and  _289
REMARK  115  A    between atoms: _289  and  _290
REMARK  116  A    between atoms: _289  and  _292
REMARK  117  A    between atoms: _292  and  _293
REMARK  118  A    between atoms: _293  and  _294
REMARK  119  A    between atoms: _294  and  _295
REMARK  120  A    between atoms: _304  and  _306
REMARK  121  A    between atoms: _306  and  _307
REMARK  122  A    between atoms: _306  and  _309
REMARK  123  A    between atoms: _309  and  _310
REMARK  124  A    between atoms: _312  and  _314
REMARK  125  A    between atoms: _314  and  _315
REMARK  126  A    between atoms: _314  and  _317
REMARK  127  A    between atoms: _317  and  _318
REMARK  128  A    between atoms: _322  and  ZN_329
REMARK  129  A    between atoms: _323  and  _325
REMARK  130  A    between atoms: _325  and  _326
REMARK                            x       y       z     vdW  Elec       q    Type
REMARK                         _______ _______ _______ _____ _____    ______ ____
ROOT
ATOM      1  O   HOH     1       7.643  28.157  20.467  0.00  0.00    +0.000 OA
ENDROOT
TORSDOF 0
REMARK  Name = ../refined-set-2016/3t01/3t01_pocket.pdb
REMARK  130 active torsions:
REMARK  status: ('A' for Active; 'I' for Inactive)
REMARK    1  A    between atoms: _1  and  _3
REMARK    2  A    between atoms: _3  and  _4
REMARK    3  A    between atoms: _3  and  _6
REMARK    4  A    between atoms: _6  and  _7
REMARK    5  A    between atoms: _7  and  _8
REMARK    6  A    between atoms: _8  and  ZN_328
REMARK    7  A    between atoms: _10  and  _12
REMARK    8  A    between atoms: _12  and  _13
REMARK    9  A    between atoms: _16  and  _17
REMARK   10  A    between atoms: _22  and  _24
REMARK   11  A    between atoms: _24  and  _25
REMARK   12  A    between atoms: _24  and  _27
REMARK   13  A    between atoms: _27  and  _28
REMARK   14  A    between atoms: _30  and  _32
REMARK   15  A    between atoms: _32  and  _33
REMARK   16  A    between atoms: _32  and  _35
REMARK   17  A    between atoms: _35  and  _36
REMARK   18  A    between atoms: _42  and  _44
REMARK   19  A    between atoms: _44  and  _45
REMARK   20  A    between atoms: _44  and  _47
REMARK   21  A    between atoms: _47  and  _48
REMARK   22  A    between atoms: _51  and  _53
REMARK   23  A    between atoms: _53  and  _54
REMARK   24  A    between atoms: _53  and  _56
REMARK   25  A    between atoms: _56  and  _57
REMARK   26  A    between atoms: _63  and  _64
REMARK   27  A    between atoms: _69  and  _71
REMARK   28  A    between atoms: _71  and  _72
REMARK   29  A    between atoms: _71  and  _74
REMARK   30  A    between atoms: _74  and  _75
REMARK   31  A    between atoms: _80  and  _82
REMARK   32  A    between atoms: _82  and  _83
REMARK   33  A    between atoms: _82  and  _85
REMARK   34  A    between atoms: _85  and  _86
REMARK   35  A    between atoms: _91  and  _93
REMARK   36  A    between atoms: _93  and  _94
REMARK   37  A    between atoms: _96  and  _98
REMARK   38  A    between atoms: _98  and  _99
REMARK   39  A    between atoms: _98  and  _101
REMARK   40  A    between atoms: _101  and  _102
REMARK   41  A    between atoms: _107  and  _109
REMARK   42  A    between atoms: _109  and  _110
REMARK   43  A    between atoms: _109  and  _112
REMARK   44  A    between atoms: _112  and  _113
REMARK   45  A    between atoms: _113  and  _114
REMARK   46  A    between atoms: _114  and  _115
REMARK   47  A    between atoms: _115  and  _116
REMARK   48  A    between atoms: _120  and  _122
REMARK   49  A    between atoms: _122  and  _123
REMARK   50  A    between atoms: _122  and  _125
REMARK   51  A    between atoms: _125  and  _126
REMARK   52  A    between atoms: _126  and  _127
REMARK   53  A    between atoms: _127  and  _128
REMARK   54  A    between atoms: _128  and  _129
REMARK   55  A    between atoms: _133  and  _135
REMARK   56  A    between atoms: _135  and  _136
REMARK   57  A    between atoms: _135  and  _138
REMARK   58  A    between atoms: _138  and  _139
REMARK   59  A    between atoms: _144  and  _145
REMARK   60  A    between atoms: _147  and  _149
REMARK   61  A    between atoms: _149  and  _150
REMARK   62  A    between atoms: _149  and  _152
REMARK   63  A    between atoms: _152  and  _153
REMARK   64  A    between atoms: _156  and  _158
REMARK   65  A    between atoms: _158  and  _159
REMARK   66  A    between atoms: _158  and  _161
REMARK   67  A    between atoms: _161  and  _162
REMARK   68  A    between atoms: _165  and  _167
REMARK   69  A    between atoms: _167  and  _168
REMARK   70  A    between atoms: _167  and  _170
REMARK   71  A    between atoms: _170  and  _171
REMARK   72  A    between atoms: _171  and  _173
REMARK   73  A    between atoms: _173  and  ZN_329
REMARK   74  A    between atoms: _174  and  _176
REMARK   75  A    between atoms: _176  and  _177
REMARK   76  A    between atoms: _176  and  _179
REMARK   77  A    between atoms: _179  and  _180
REMARK   78  A    between atoms: _185  and  _186
REMARK   79  A    between atoms: _188  and  _190
REMARK   80  A    between atoms: _190  and  _191
REMARK   81  A    between atoms: _190  and  _193
REMARK   82  A    between atoms: _193  and  _194
REMARK   83  A    between atoms: _198  and  ZN_329
REMARK   84  A    between atoms: _199  and  _201
REMARK   85  A    between atoms: _210  and  _211
REMARK   86  A    between atoms: _219  and  _221
REMARK   87  A    between atoms: _221  and  _222
REMARK   88  A    between atoms: _221  and  _224
REMARK   89  A    between atoms: _224  and  _225
REMARK   90  A    between atoms: _225  and  _226
REMARK   91  A    between atoms: _229  and  _230
REMARK   92  A    between atoms: _235  and  _237
REMARK   93  A    between atoms: _237  and  _238
REMARK   94  A    between atoms: _237  and  _240
REMARK   95  A    between atoms: _240  and  _241
REMARK   96  A    between atoms: _244  and  _246
REMARK   97  A    between atoms: _246  and  _247
REMARK   98  A    between atoms: _246  and  _249
REMARK   99  A    between atoms: _249  and  _250
REMARK  100  A    between atoms: _253  and  _255
REMARK  101  A    between atoms: _255  and  _256
REMARK  102  A    between atoms: _255  and  _258
REMARK  103  A    between atoms: _258  and  _259
REMARK  104  A    between atoms: _262  and  _264
REMARK  105  A    between atoms: _264  and  _265
REMARK  106  A    between atoms: _267  and  _269
REMARK  107  A    between atoms: _269  and  _270
REMARK  108  A    between atoms: _273  and  _275
REMARK  109  A    between atoms: _275  and  _276
REMARK  110  A    between atoms: _275  and  _278
REMARK  111  A    between atoms: _278  and  _279
REMARK  112  A    between atoms: _282  and  _284
REMARK  113  A    between atoms: _284  and  _285
REMARK  114  A    between atoms: _287  and  _289
REMARK  115  A    between atoms: _289  and  _290
REMARK  116  A    between atoms: _289  and  _292
REMARK  117  A    between atoms: _292  and  _293
REMARK  118  A    between atoms: _293  and  _294
REMARK  119  A    between atoms: _294  and  _295
REMARK  120  A    between atoms: _304  and  _306
REMARK  121  A    between atoms: _306  and  _307
REMARK  122  A    between atoms: _306  and  _309
REMARK  123  A    between atoms: _309  and  _310
REMARK  124  A    between atoms: _312  and  _314
REMARK  125  A    between atoms: _314  and  _315
REMARK  126  A    between atoms: _314  and  _317
REMARK  127  A    between atoms: _317  and  _318
REMARK  128  A    between atoms: _322  and  ZN_329
REMARK  129  A    between atoms: _323  and  _325
REMARK  130  A    between atoms: _325  and  _326
REMARK                            x       y       z     vdW  Elec       q    Type
REMARK                         _______ _______ _______ _____ _____    ______ ____
ROOT
ATOM      1  O   HOH     1       2.752  27.043  17.192  0.00  0.00    +0.000 OA
ENDROOT
TORSDOF 0
REMARK  Name = ../refined-set-2016/3t01/3t01_pocket.pdb
REMARK  130 active torsions:
REMARK  status: ('A' for Active; 'I' for Inactive)
REMARK    1  A    between atoms: _1  and  _3
REMARK    2  A    between atoms: _3  and  _4
REMARK    3  A    between atoms: _3  and  _6
REMARK    4  A    between atoms: _6  and  _7
REMARK    5  A    between atoms: _7  and  _8
REMARK    6  A    between atoms: _8  and  ZN_328
REMARK    7  A    between atoms: _10  and  _12
REMARK    8  A    between atoms: _12  and  _13
REMARK    9  A    between atoms: _16  and  _17
REMARK   10  A    between atoms: _22  and  _24
REMARK   11  A    between atoms: _24  and  _25
REMARK   12  A    between atoms: _24  and  _27
REMARK   13  A    between atoms: _27  and  _28
REMARK   14  A    between atoms: _30  and  _32
REMARK   15  A    between atoms: _32  and  _33
REMARK   16  A    between atoms: _32  and  _35
REMARK   17  A    between atoms: _35  and  _36
REMARK   18  A    between atoms: _42  and  _44
REMARK   19  A    between atoms: _44  and  _45
REMARK   20  A    between atoms: _44  and  _47
REMARK   21  A    between atoms: _47  and  _48
REMARK   22  A    between atoms: _51  and  _53
REMARK   23  A    between atoms: _53  and  _54
REMARK   24  A    between atoms: _53  and  _56
REMARK   25  A    between atoms: _56  and  _57
REMARK   26  A    between atoms: _63  and  _64
REMARK   27  A    between atoms: _69  and  _71
REMARK   28  A    between atoms: _71  and  _72
REMARK   29  A    between atoms: _71  and  _74
REMARK   30  A    between atoms: _74  and  _75
REMARK   31  A    between atoms: _80  and  _82
REMARK   32  A    between atoms: _82  and  _83
REMARK   33  A    between atoms: _82  and  _85
REMARK   34  A    between atoms: _85  and  _86
REMARK   35  A    between atoms: _91  and  _93
REMARK   36  A    between atoms: _93  and  _94
REMARK   37  A    between atoms: _96  and  _98
REMARK   38  A    between atoms: _98  and  _99
REMARK   39  A    between atoms: _98  and  _101
REMARK   40  A    between atoms: _101  and  _102
REMARK   41  A    between atoms: _107  and  _109
REMARK   42  A    between atoms: _109  and  _110
REMARK   43  A    between atoms: _109  and  _112
REMARK   44  A    between atoms: _112  and  _113
REMARK   45  A    between atoms: _113  and  _114
REMARK   46  A    between atoms: _114  and  _115
REMARK   47  A    between atoms: _115  and  _116
REMARK   48  A    between atoms: _120  and  _122
REMARK   49  A    between atoms: _122  and  _123
REMARK   50  A    between atoms: _122  and  _125
REMARK   51  A    between atoms: _125  and  _126
REMARK   52  A    between atoms: _126  and  _127
REMARK   53  A    between atoms: _127  and  _128
REMARK   54  A    between atoms: _128  and  _129
REMARK   55  A    between atoms: _133  and  _135
REMARK   56  A    between atoms: _135  and  _136
REMARK   57  A    between atoms: _135  and  _138
REMARK   58  A    between atoms: _138  and  _139
REMARK   59  A    between atoms: _144  and  _145
REMARK   60  A    between atoms: _147  and  _149
REMARK   61  A    between atoms: _149  and  _150
REMARK   62  A    between atoms: _149  and  _152
REMARK   63  A    between atoms: _152  and  _153
REMARK   64  A    between atoms: _156  and  _158
REMARK   65  A    between atoms: _158  and  _159
REMARK   66  A    between atoms: _158  and  _161
REMARK   67  A    between atoms: _161  and  _162
REMARK   68  A    between atoms: _165  and  _167
REMARK   69  A    between atoms: _167  and  _168
REMARK   70  A    between atoms: _167  and  _170
REMARK   71  A    between atoms: _170  and  _171
REMARK   72  A    between atoms: _171  and  _173
REMARK   73  A    between atoms: _173  and  ZN_329
REMARK   74  A    between atoms: _174  and  _176
REMARK   75  A    between atoms: _176  and  _177
REMARK   76  A    between atoms: _176  and  _179
REMARK   77  A    between atoms: _179  and  _180
REMARK   78  A    between atoms: _185  and  _186
REMARK   79  A    between atoms: _188  and  _190
REMARK   80  A    between atoms: _190  and  _191
REMARK   81  A    between atoms: _190  and  _193
REMARK   82  A    between atoms: _193  and  _194
REMARK   83  A    between atoms: _198  and  ZN_329
REMARK   84  A    between atoms: _199  and  _201
REMARK   85  A    between atoms: _210  and  _211
REMARK   86  A    between atoms: _219  and  _221
REMARK   87  A    between atoms: _221  and  _222
REMARK   88  A    between atoms: _221  and  _224
REMARK   89  A    between atoms: _224  and  _225
REMARK   90  A    between atoms: _225  and  _226
REMARK   91  A    between atoms: _229  and  _230
REMARK   92  A    between atoms: _235  and  _237
REMARK   93  A    between atoms: _237  and  _238
REMARK   94  A    between atoms: _237  and  _240
REMARK   95  A    between atoms: _240  and  _241
REMARK   96  A    between atoms: _244  and  _246
REMARK   97  A    between atoms: _246  and  _247
REMARK   98  A    between atoms: _246  and  _249
REMARK   99  A    between atoms: _249  and  _250
REMARK  100  A    between atoms: _253  and  _255
REMARK  101  A    between atoms: _255  and  _256
REMARK  102  A    between atoms: _255  and  _258
REMARK  103  A    between atoms: _258  and  _259
REMARK  104  A    between atoms: _262  and  _264
REMARK  105  A    between atoms: _264  and  _265
REMARK  106  A    between atoms: _267  and  _269
REMARK  107  A    between atoms: _269  and  _270
REMARK  108  A    between atoms: _273  and  _275
REMARK  109  A    between atoms: _275  and  _276
REMARK  110  A    between atoms: _275  and  _278
REMARK  111  A    between atoms: _278  and  _279
REMARK  112  A    between atoms: _282  and  _284
REMARK  113  A    between atoms: _284  and  _285
REMARK  114  A    between atoms: _287  and  _289
REMARK  115  A    between atoms: _289  and  _290
REMARK  116  A    between atoms: _289  and  _292
REMARK  117  A    between atoms: _292  and  _293
REMARK  118  A    between atoms: _293  and  _294
REMARK  119  A    between atoms: _294  and  _295
REMARK  120  A    between atoms: _304  and  _306
REMARK  121  A    between atoms: _306  and  _307
REMARK  122  A    between atoms: _306  and  _309
REMARK  123  A    between atoms: _309  and  _310
REMARK  124  A    between atoms: _312  and  _314
REMARK  125  A    between atoms: _314  and  _315
REMARK  126  A    between atoms: _314  and  _317
REMARK  127  A    between atoms: _317  and  _318
REMARK  128  A    between atoms: _322  and  ZN_329
REMARK  129  A    between atoms: _323  and  _325
REMARK  130  A    between atoms: _325  and  _326
REMARK                            x       y       z     vdW  Elec       q    Type
REMARK                         _______ _______ _______ _____ _____    ______ ____
ROOT
ATOM      1  O   HOH     1      -4.238  37.386  22.157  0.00  0.00    +0.000 OA
ENDROOT
TORSDOF 0
REMARK  Name = ../refined-set-2016/3t01/3t01_pocket.pdb
REMARK  130 active torsions:
REMARK  status: ('A' for Active; 'I' for Inactive)
REMARK    1  A    between atoms: _1  and  _3
REMARK    2  A    between atoms: _3  and  _4
REMARK    3  A    between atoms: _3  and  _6
REMARK    4  A    between atoms: _6  and  _7
REMARK    5  A    between atoms: _7  and  _8
REMARK    6  A    between atoms: _8  and  ZN_328
REMARK    7  A    between atoms: _10  and  _12
REMARK    8  A    between atoms: _12  and  _13
REMARK    9  A    between atoms: _16  and  _17
REMARK   10  A    between atoms: _22  and  _24
REMARK   11  A    between atoms: _24  and  _25
REMARK   12  A    between atoms: _24  and  _27
REMARK   13  A    between atoms: _27  and  _28
REMARK   14  A    between atoms: _30  and  _32
REMARK   15  A    between atoms: _32  and  _33
REMARK   16  A    between atoms: _32  and  _35
REMARK   17  A    between atoms: _35  and  _36
REMARK   18  A    between atoms: _42  and  _44
REMARK   19  A    between atoms: _44  and  _45
REMARK   20  A    between atoms: _44  and  _47
REMARK   21  A    between atoms: _47  and  _48
REMARK   22  A    between atoms: _51  and  _53
REMARK   23  A    between atoms: _53  and  _54
REMARK   24  A    between atoms: _53  and  _56
REMARK   25  A    between atoms: _56  and  _57
REMARK   26  A    between atoms: _63  and  _64
REMARK   27  A    between atoms: _69  and  _71
REMARK   28  A    between atoms: _71  and  _72
REMARK   29  A    between atoms: _71  and  _74
REMARK   30  A    between atoms: _74  and  _75
REMARK   31  A    between atoms: _80  and  _82
REMARK   32  A    between atoms: _82  and  _83
REMARK   33  A    between atoms: _82  and  _85
REMARK   34  A    between atoms: _85  and  _86
REMARK   35  A    between atoms: _91  and  _93
REMARK   36  A    between atoms: _93  and  _94
REMARK   37  A    between atoms: _96  and  _98
REMARK   38  A    between atoms: _98  and  _99
REMARK   39  A    between atoms: _98  and  _101
REMARK   40  A    between atoms: _101  and  _102
REMARK   41  A    between atoms: _107  and  _109
REMARK   42  A    between atoms: _109  and  _110
REMARK   43  A    between atoms: _109  and  _112
REMARK   44  A    between atoms: _112  and  _113
REMARK   45  A    between atoms: _113  and  _114
REMARK   46  A    between atoms: _114  and  _115
REMARK   47  A    between atoms: _115  and  _116
REMARK   48  A    between atoms: _120  and  _122
REMARK   49  A    between atoms: _122  and  _123
REMARK   50  A    between atoms: _122  and  _125
REMARK   51  A    between atoms: _125  and  _126
REMARK   52  A    between atoms: _126  and  _127
REMARK   53  A    between atoms: _127  and  _128
REMARK   54  A    between atoms: _128  and  _129
REMARK   55  A    between atoms: _133  and  _135
REMARK   56  A    between atoms: _135  and  _136
REMARK   57  A    between atoms: _135  and  _138
REMARK   58  A    between atoms: _138  and  _139
REMARK   59  A    between atoms: _144  and  _145
REMARK   60  A    between atoms: _147  and  _149
REMARK   61  A    between atoms: _149  and  _150
REMARK   62  A    between atoms: _149  and  _152
REMARK   63  A    between atoms: _152  and  _153
REMARK   64  A    between atoms: _156  and  _158
REMARK   65  A    between atoms: _158  and  _159
REMARK   66  A    between atoms: _158  and  _161
REMARK   67  A    between atoms: _161  and  _162
REMARK   68  A    between atoms: _165  and  _167
REMARK   69  A    between atoms: _167  and  _168
REMARK   70  A    between atoms: _167  and  _170
REMARK   71  A    between atoms: _170  and  _171
REMARK   72  A    between atoms: _171  and  _173
REMARK   73  A    between atoms: _173  and  ZN_329
REMARK   74  A    between atoms: _174  and  _176
REMARK   75  A    between atoms: _176  and  _177
REMARK   76  A    between atoms: _176  and  _179
REMARK   77  A    between atoms: _179  and  _180
REMARK   78  A    between atoms: _185  and  _186
REMARK   79  A    between atoms: _188  and  _190
REMARK   80  A    between atoms: _190  and  _191
REMARK   81  A    between atoms: _190  and  _193
REMARK   82  A    between atoms: _193  and  _194
REMARK   83  A    between atoms: _198  and  ZN_329
REMARK   84  A    between atoms: _199  and  _201
REMARK   85  A    between atoms: _210  and  _211
REMARK   86  A    between atoms: _219  and  _221
REMARK   87  A    between atoms: _221  and  _222
REMARK   88  A    between atoms: _221  and  _224
REMARK   89  A    between atoms: _224  and  _225
REMARK   90  A    between atoms: _225  and  _226
REMARK   91  A    between atoms: _229  and  _230
REMARK   92  A    between atoms: _235  and  _237
REMARK   93  A    between atoms: _237  and  _238
REMARK   94  A    between atoms: _237  and  _240
REMARK   95  A    between atoms: _240  and  _241
REMARK   96  A    between atoms: _244  and  _246
REMARK   97  A    between atoms: _246  and  _247
REMARK   98  A    between atoms: _246  and  _249
REMARK   99  A    between atoms: _249  and  _250
REMARK  100  A    between atoms: _253  and  _255
REMARK  101  A    between atoms: _255  and  _256
REMARK  102  A    between atoms: _255  and  _258
REMARK  103  A    between atoms: _258  and  _259
REMARK  104  A    between atoms: _262  and  _264
REMARK  105  A    between atoms: _264  and  _265
REMARK  106  A    between atoms: _267  and  _269
REMARK  107  A    between atoms: _269  and  _270
REMARK  108  A    between atoms: _273  and  _275
REMARK  109  A    between atoms: _275  and  _276
REMARK  110  A    between atoms: _275  and  _278
REMARK  111  A    between atoms: _278  and  _279
REMARK  112  A    between atoms: _282  and  _284
REMARK  113  A    between atoms: _284  and  _285
REMARK  114  A    between atoms: _287  and  _289
REMARK  115  A    between atoms: _289  and  _290
REMARK  116  A    between atoms: _289  and  _292
REMARK  117  A    between atoms: _292  and  _293
REMARK  118  A    between atoms: _293  and  _294
REMARK  119  A    between atoms: _294  and  _295
REMARK  120  A    between atoms: _304  and  _306
REMARK  121  A    between atoms: _306  and  _307
REMARK  122  A    between atoms: _306  and  _309
REMARK  123  A    between atoms: _309  and  _310
REMARK  124  A    between atoms: _312  and  _314
REMARK  125  A    between atoms: _314  and  _315
REMARK  126  A    between atoms: _314  and  _317
REMARK  127  A    between atoms: _317  and  _318
REMARK  128  A    between atoms: _322  and  ZN_329
REMARK  129  A    between atoms: _323  and  _325
REMARK  130  A    between atoms: _325  and  _326
REMARK                            x       y       z     vdW  Elec       q    Type
REMARK                         _______ _______ _______ _____ _____    ______ ____
ROOT
ATOM      1  O   HOH     1      -1.566  25.957  14.815  0.00  0.00    +0.000 OA
ENDROOT
TORSDOF 0
REMARK  Name = ../refined-set-2016/3t01/3t01_pocket.pdb
REMARK  130 active torsions:
REMARK  status: ('A' for Active; 'I' for Inactive)
REMARK    1  A    between atoms: _1  and  _3
REMARK    2  A    between atoms: _3  and  _4
REMARK    3  A    between atoms: _3  and  _6
REMARK    4  A    between atoms: _6  and  _7
REMARK    5  A    between atoms: _7  and  _8
REMARK    6  A    between atoms: _8  and  ZN_328
REMARK    7  A    between atoms: _10  and  _12
REMARK    8  A    between atoms: _12  and  _13
REMARK    9  A    between atoms: _16  and  _17
REMARK   10  A    between atoms: _22  and  _24
REMARK   11  A    between atoms: _24  and  _25
REMARK   12  A    between atoms: _24  and  _27
REMARK   13  A    between atoms: _27  and  _28
REMARK   14  A    between atoms: _30  and  _32
REMARK   15  A    between atoms: _32  and  _33
REMARK   16  A    between atoms: _32  and  _35
REMARK   17  A    between atoms: _35  and  _36
REMARK   18  A    between atoms: _42  and  _44
REMARK   19  A    between atoms: _44  and  _45
REMARK   20  A    between atoms: _44  and  _47
REMARK   21  A    between atoms: _47  and  _48
REMARK   22  A    between atoms: _51  and  _53
REMARK   23  A    between atoms: _53  and  _54
REMARK   24  A    between atoms: _53  and  _56
REMARK   25  A    between atoms: _56  and  _57
REMARK   26  A    between atoms: _63  and  _64
REMARK   27  A    between atoms: _69  and  _71
REMARK   28  A    between atoms: _71  and  _72
REMARK   29  A    between atoms: _71  and  _74
REMARK   30  A    between atoms: _74  and  _75
REMARK   31  A    between atoms: _80  and  _82
REMARK   32  A    between atoms: _82  and  _83
REMARK   33  A    between atoms: _82  and  _85
REMARK   34  A    between atoms: _85  and  _86
REMARK   35  A    between atoms: _91  and  _93
REMARK   36  A    between atoms: _93  and  _94
REMARK   37  A    between atoms: _96  and  _98
REMARK   38  A    between atoms: _98  and  _99
REMARK   39  A    between atoms: _98  and  _101
REMARK   40  A    between atoms: _101  and  _102
REMARK   41  A    between atoms: _107  and  _109
REMARK   42  A    between atoms: _109  and  _110
REMARK   43  A    between atoms: _109  and  _112
REMARK   44  A    between atoms: _112  and  _113
REMARK   45  A    between atoms: _113  and  _114
REMARK   46  A    between atoms: _114  and  _115
REMARK   47  A    between atoms: _115  and  _116
REMARK   48  A    between atoms: _120  and  _122
REMARK   49  A    between atoms: _122  and  _123
REMARK   50  A    between atoms: _122  and  _125
REMARK   51  A    between atoms: _125  and  _126
REMARK   52  A    between atoms: _126  and  _127
REMARK   53  A    between atoms: _127  and  _128
REMARK   54  A    between atoms: _128  and  _129
REMARK   55  A    between atoms: _133  and  _135
REMARK   56  A    between atoms: _135  and  _136
REMARK   57  A    between atoms: _135  and  _138
REMARK   58  A    between atoms: _138  and  _139
REMARK   59  A    between atoms: _144  and  _145
REMARK   60  A    between atoms: _147  and  _149
REMARK   61  A    between atoms: _149  and  _150
REMARK   62  A    between atoms: _149  and  _152
REMARK   63  A    between atoms: _152  and  _153
REMARK   64  A    between atoms: _156  and  _158
REMARK   65  A    between atoms: _158  and  _159
REMARK   66  A    between atoms: _158  and  _161
REMARK   67  A    between atoms: _161  and  _162
REMARK   68  A    between atoms: _165  and  _167
REMARK   69  A    between atoms: _167  and  _168
REMARK   70  A    between atoms: _167  and  _170
REMARK   71  A    between atoms: _170  and  _171
REMARK   72  A    between atoms: _171  and  _173
REMARK   73  A    between atoms: _173  and  ZN_329
REMARK   74  A    between atoms: _174  and  _176
REMARK   75  A    between atoms: _176  and  _177
REMARK   76  A    between atoms: _176  and  _179
REMARK   77  A    between atoms: _179  and  _180
REMARK   78  A    between atoms: _185  and  _186
REMARK   79  A    between atoms: _188  and  _190
REMARK   80  A    between atoms: _190  and  _191
REMARK   81  A    between atoms: _190  and  _193
REMARK   82  A    between atoms: _193  and  _194
REMARK   83  A    between atoms: _198  and  ZN_329
REMARK   84  A    between atoms: _199  and  _201
REMARK   85  A    between atoms: _210  and  _211
REMARK   86  A    between atoms: _219  and  _221
REMARK   87  A    between atoms: _221  and  _222
REMARK   88  A    between atoms: _221  and  _224
REMARK   89  A    between atoms: _224  and  _225
REMARK   90  A    between atoms: _225  and  _226
REMARK   91  A    between atoms: _229  and  _230
REMARK   92  A    between atoms: _235  and  _237
REMARK   93  A    between atoms: _237  and  _238
REMARK   94  A    between atoms: _237  and  _240
REMARK   95  A    between atoms: _240  and  _241
REMARK   96  A    between atoms: _244  and  _246
REMARK   97  A    between atoms: _246  and  _247
REMARK   98  A    between atoms: _246  and  _249
REMARK   99  A    between atoms: _249  and  _250
REMARK  100  A    between atoms: _253  and  _255
REMARK  101  A    between atoms: _255  and  _256
REMARK  102  A    between atoms: _255  and  _258
REMARK  103  A    between atoms: _258  and  _259
REMARK  104  A    between atoms: _262  and  _264
REMARK  105  A    between atoms: _264  and  _265
REMARK  106  A    between atoms: _267  and  _269
REMARK  107  A    between atoms: _269  and  _270
REMARK  108  A    between atoms: _273  and  _275
REMARK  109  A    between atoms: _275  and  _276
REMARK  110  A    between atoms: _275  and  _278
REMARK  111  A    between atoms: _278  and  _279
REMARK  112  A    between atoms: _282  and  _284
REMARK  113  A    between atoms: _284  and  _285
REMARK  114  A    between atoms: _287  and  _289
REMARK  115  A    between atoms: _289  and  _290
REMARK  116  A    between atoms: _289  and  _292
REMARK  117  A    between atoms: _292  and  _293
REMARK  118  A    between atoms: _293  and  _294
REMARK  119  A    between atoms: _294  and  _295
REMARK  120  A    between atoms: _304  and  _306
REMARK  121  A    between atoms: _306  and  _307
REMARK  122  A    between atoms: _306  and  _309
REMARK  123  A    between atoms: _309  and  _310
REMARK  124  A    between atoms: _312  and  _314
REMARK  125  A    between atoms: _314  and  _315
REMARK  126  A    between atoms: _314  and  _317
REMARK  127  A    between atoms: _317  and  _318
REMARK  128  A    between atoms: _322  and  ZN_329
REMARK  129  A    between atoms: _323  and  _325
REMARK  130  A    between atoms: _325  and  _326
REMARK                            x       y       z     vdW  Elec       q    Type
REMARK                         _______ _______ _______ _____ _____    ______ ____
ROOT
ATOM      1  O   HOH     1      -1.114  29.937  17.144  0.00  0.00    +0.000 OA
ENDROOT
TORSDOF 0
REMARK  Name = ../refined-set-2016/3t01/3t01_pocket.pdb
REMARK  130 active torsions:
REMARK  status: ('A' for Active; 'I' for Inactive)
REMARK    1  A    between atoms: _1  and  _3
REMARK    2  A    between atoms: _3  and  _4
REMARK    3  A    between atoms: _3  and  _6
REMARK    4  A    between atoms: _6  and  _7
REMARK    5  A    between atoms: _7  and  _8
REMARK    6  A    between atoms: _8  and  ZN_328
REMARK    7  A    between atoms: _10  and  _12
REMARK    8  A    between atoms: _12  and  _13
REMARK    9  A    between atoms: _16  and  _17
REMARK   10  A    between atoms: _22  and  _24
REMARK   11  A    between atoms: _24  and  _25
REMARK   12  A    between atoms: _24  and  _27
REMARK   13  A    between atoms: _27  and  _28
REMARK   14  A    between atoms: _30  and  _32
REMARK   15  A    between atoms: _32  and  _33
REMARK   16  A    between atoms: _32  and  _35
REMARK   17  A    between atoms: _35  and  _36
REMARK   18  A    between atoms: _42  and  _44
REMARK   19  A    between atoms: _44  and  _45
REMARK   20  A    between atoms: _44  and  _47
REMARK   21  A    between atoms: _47  and  _48
REMARK   22  A    between atoms: _51  and  _53
REMARK   23  A    between atoms: _53  and  _54
REMARK   24  A    between atoms: _53  and  _56
REMARK   25  A    between atoms: _56  and  _57
REMARK   26  A    between atoms: _63  and  _64
REMARK   27  A    between atoms: _69  and  _71
REMARK   28  A    between atoms: _71  and  _72
REMARK   29  A    between atoms: _71  and  _74
REMARK   30  A    between atoms: _74  and  _75
REMARK   31  A    between atoms: _80  and  _82
REMARK   32  A    between atoms: _82  and  _83
REMARK   33  A    between atoms: _82  and  _85
REMARK   34  A    between atoms: _85  and  _86
REMARK   35  A    between atoms: _91  and  _93
REMARK   36  A    between atoms: _93  and  _94
REMARK   37  A    between atoms: _96  and  _98
REMARK   38  A    between atoms: _98  and  _99
REMARK   39  A    between atoms: _98  and  _101
REMARK   40  A    between atoms: _101  and  _102
REMARK   41  A    between atoms: _107  and  _109
REMARK   42  A    between atoms: _109  and  _110
REMARK   43  A    between atoms: _109  and  _112
REMARK   44  A    between atoms: _112  and  _113
REMARK   45  A    between atoms: _113  and  _114
REMARK   46  A    between atoms: _114  and  _115
REMARK   47  A    between atoms: _115  and  _116
REMARK   48  A    between atoms: _120  and  _122
REMARK   49  A    between atoms: _122  and  _123
REMARK   50  A    between atoms: _122  and  _125
REMARK   51  A    between atoms: _125  and  _126
REMARK   52  A    between atoms: _126  and  _127
REMARK   53  A    between atoms: _127  and  _128
REMARK   54  A    between atoms: _128  and  _129
REMARK   55  A    between atoms: _133  and  _135
REMARK   56  A    between atoms: _135  and  _136
REMARK   57  A    between atoms: _135  and  _138
REMARK   58  A    between atoms: _138  and  _139
REMARK   59  A    between atoms: _144  and  _145
REMARK   60  A    between atoms: _147  and  _149
REMARK   61  A    between atoms: _149  and  _150
REMARK   62  A    between atoms: _149  and  _152
REMARK   63  A    between atoms: _152  and  _153
REMARK   64  A    between atoms: _156  and  _158
REMARK   65  A    between atoms: _158  and  _159
REMARK   66  A    between atoms: _158  and  _161
REMARK   67  A    between atoms: _161  and  _162
REMARK   68  A    between atoms: _165  and  _167
REMARK   69  A    between atoms: _167  and  _168
REMARK   70  A    between atoms: _167  and  _170
REMARK   71  A    between atoms: _170  and  _171
REMARK   72  A    between atoms: _171  and  _173
REMARK   73  A    between atoms: _173  and  ZN_329
REMARK   74  A    between atoms: _174  and  _176
REMARK   75  A    between atoms: _176  and  _177
REMARK   76  A    between atoms: _176  and  _179
REMARK   77  A    between atoms: _179  and  _180
REMARK   78  A    between atoms: _185  and  _186
REMARK   79  A    between atoms: _188  and  _190
REMARK   80  A    between atoms: _190  and  _191
REMARK   81  A    between atoms: _190  and  _193
REMARK   82  A    between atoms: _193  and  _194
REMARK   83  A    between atoms: _198  and  ZN_329
REMARK   84  A    between atoms: _199  and  _201
REMARK   85  A    between atoms: _210  and  _211
REMARK   86  A    between atoms: _219  and  _221
REMARK   87  A    between atoms: _221  and  _222
REMARK   88  A    between atoms: _221  and  _224
REMARK   89  A    between atoms: _224  and  _225
REMARK   90  A    between atoms: _225  and  _226
REMARK   91  A    between atoms: _229  and  _230
REMARK   92  A    between atoms: _235  and  _237
REMARK   93  A    between atoms: _237  and  _238
REMARK   94  A    between atoms: _237  and  _240
REMARK   95  A    between atoms: _240  and  _241
REMARK   96  A    between atoms: _244  and  _246
REMARK   97  A    between atoms: _246  and  _247
REMARK   98  A    between atoms: _246  and  _249
REMARK   99  A    between atoms: _249  and  _250
REMARK  100  A    between atoms: _253  and  _255
REMARK  101  A    between atoms: _255  and  _256
REMARK  102  A    between atoms: _255  and  _258
REMARK  103  A    between atoms: _258  and  _259
REMARK  104  A    between atoms: _262  and  _264
REMARK  105  A    between atoms: _264  and  _265
REMARK  106  A    between atoms: _267  and  _269
REMARK  107  A    between atoms: _269  and  _270
REMARK  108  A    between atoms: _273  and  _275
REMARK  109  A    between atoms: _275  and  _276
REMARK  110  A    between atoms: _275  and  _278
REMARK  111  A    between atoms: _278  and  _279
REMARK  112  A    between atoms: _282  and  _284
REMARK  113  A    between atoms: _284  and  _285
REMARK  114  A    between atoms: _287  and  _289
REMARK  115  A    between atoms: _289  and  _290
REMARK  116  A    between atoms: _289  and  _292
REMARK  117  A    between atoms: _292  and  _293
REMARK  118  A    between atoms: _293  and  _294
REMARK  119  A    between atoms: _294  and  _295
REMARK  120  A    between atoms: _304  and  _306
REMARK  121  A    between atoms: _306  and  _307
REMARK  122  A    between atoms: _306  and  _309
REMARK  123  A    between atoms: _309  and  _310
REMARK  124  A    between atoms: _312  and  _314
REMARK  125  A    between atoms: _314  and  _315
REMARK  126  A    between atoms: _314  and  _317
REMARK  127  A    between atoms: _317  and  _318
REMARK  128  A    between atoms: _322  and  ZN_329
REMARK  129  A    between atoms: _323  and  _325
REMARK  130  A    between atoms: _325  and  _326
REMARK                            x       y       z     vdW  Elec       q    Type
REMARK                         _______ _______ _______ _____ _____    ______ ____
ROOT
ATOM      1  O   HOH     1       4.677  33.172  25.395  0.00  0.00    +0.000 OA
ENDROOT
TORSDOF 0
REMARK  Name = ../refined-set-2016/3t01/3t01_pocket.pdb
REMARK  130 active torsions:
REMARK  status: ('A' for Active; 'I' for Inactive)
REMARK    1  A    between atoms: _1  and  _3
REMARK    2  A    between atoms: _3  and  _4
REMARK    3  A    between atoms: _3  and  _6
REMARK    4  A    between atoms: _6  and  _7
REMARK    5  A    between atoms: _7  and  _8
REMARK    6  A    between atoms: _8  and  ZN_328
REMARK    7  A    between atoms: _10  and  _12
REMARK    8  A    between atoms: _12  and  _13
REMARK    9  A    between atoms: _16  and  _17
REMARK   10  A    between atoms: _22  and  _24
REMARK   11  A    between atoms: _24  and  _25
REMARK   12  A    between atoms: _24  and  _27
REMARK   13  A    between atoms: _27  and  _28
REMARK   14  A    between atoms: _30  and  _32
REMARK   15  A    between atoms: _32  and  _33
REMARK   16  A    between atoms: _32  and  _35
REMARK   17  A    between atoms: _35  and  _36
REMARK   18  A    between atoms: _42  and  _44
REMARK   19  A    between atoms: _44  and  _45
REMARK   20  A    between atoms: _44  and  _47
REMARK   21  A    between atoms: _47  and  _48
REMARK   22  A    between atoms: _51  and  _53
REMARK   23  A    between atoms: _53  and  _54
REMARK   24  A    between atoms: _53  and  _56
REMARK   25  A    between atoms: _56  and  _57
REMARK   26  A    between atoms: _63  and  _64
REMARK   27  A    between atoms: _69  and  _71
REMARK   28  A    between atoms: _71  and  _72
REMARK   29  A    between atoms: _71  and  _74
REMARK   30  A    between atoms: _74  and  _75
REMARK   31  A    between atoms: _80  and  _82
REMARK   32  A    between atoms: _82  and  _83
REMARK   33  A    between atoms: _82  and  _85
REMARK   34  A    between atoms: _85  and  _86
REMARK   35  A    between atoms: _91  and  _93
REMARK   36  A    between atoms: _93  and  _94
REMARK   37  A    between atoms: _96  and  _98
REMARK   38  A    between atoms: _98  and  _99
REMARK   39  A    between atoms: _98  and  _101
REMARK   40  A    between atoms: _101  and  _102
REMARK   41  A    between atoms: _107  and  _109
REMARK   42  A    between atoms: _109  and  _110
REMARK   43  A    between atoms: _109  and  _112
REMARK   44  A    between atoms: _112  and  _113
REMARK   45  A    between atoms: _113  and  _114
REMARK   46  A    between atoms: _114  and  _115
REMARK   47  A    between atoms: _115  and  _116
REMARK   48  A    between atoms: _120  and  _122
REMARK   49  A    between atoms: _122  and  _123
REMARK   50  A    between atoms: _122  and  _125
REMARK   51  A    between atoms: _125  and  _126
REMARK   52  A    between atoms: _126  and  _127
REMARK   53  A    between atoms: _127  and  _128
REMARK   54  A    between atoms: _128  and  _129
REMARK   55  A    between atoms: _133  and  _135
REMARK   56  A    between atoms: _135  and  _136
REMARK   57  A    between atoms: _135  and  _138
REMARK   58  A    between atoms: _138  and  _139
REMARK   59  A    between atoms: _144  and  _145
REMARK   60  A    between atoms: _147  and  _149
REMARK   61  A    between atoms: _149  and  _150
REMARK   62  A    between atoms: _149  and  _152
REMARK   63  A    between atoms: _152  and  _153
REMARK   64  A    between atoms: _156  and  _158
REMARK   65  A    between atoms: _158  and  _159
REMARK   66  A    between atoms: _158  and  _161
REMARK   67  A    between atoms: _161  and  _162
REMARK   68  A    between atoms: _165  and  _167
REMARK   69  A    between atoms: _167  and  _168
REMARK   70  A    between atoms: _167  and  _170
REMARK   71  A    between atoms: _170  and  _171
REMARK   72  A    between atoms: _171  and  _173
REMARK   73  A    between atoms: _173  and  ZN_329
REMARK   74  A    between atoms: _174  and  _176
REMARK   75  A    between atoms: _176  and  _177
REMARK   76  A    between atoms: _176  and  _179
REMARK   77  A    between atoms: _179  and  _180
REMARK   78  A    between atoms: _185  and  _186
REMARK   79  A    between atoms: _188  and  _190
REMARK   80  A    between atoms: _190  and  _191
REMARK   81  A    between atoms: _190  and  _193
REMARK   82  A    between atoms: _193  and  _194
REMARK   83  A    between atoms: _198  and  ZN_329
REMARK   84  A    between atoms: _199  and  _201
REMARK   85  A    between atoms: _210  and  _211
REMARK   86  A    between atoms: _219  and  _221
REMARK   87  A    between atoms: _221  and  _222
REMARK   88  A    between atoms: _221  and  _224
REMARK   89  A    between atoms: _224  and  _225
REMARK   90  A    between atoms: _225  and  _226
REMARK   91  A    between atoms: _229  and  _230
REMARK   92  A    between atoms: _235  and  _237
REMARK   93  A    between atoms: _237  and  _238
REMARK   94  A    between atoms: _237  and  _240
REMARK   95  A    between atoms: _240  and  _241
REMARK   96  A    between atoms: _244  and  _246
REMARK   97  A    between atoms: _246  and  _247
REMARK   98  A    between atoms: _246  and  _249
REMARK   99  A    between atoms: _249  and  _250
REMARK  100  A    between atoms: _253  and  _255
REMARK  101  A    between atoms: _255  and  _256
REMARK  102  A    between atoms: _255  and  _258
REMARK  103  A    between atoms: _258  and  _259
REMARK  104  A    between atoms: _262  and  _264
REMARK  105  A    between atoms: _264  and  _265
REMARK  106  A    between atoms: _267  and  _269
REMARK  107  A    between atoms: _269  and  _270
REMARK  108  A    between atoms: _273  and  _275
REMARK  109  A    between atoms: _275  and  _276
REMARK  110  A    between atoms: _275  and  _278
REMARK  111  A    between atoms: _278  and  _279
REMARK  112  A    between atoms: _282  and  _284
REMARK  113  A    between atoms: _284  and  _285
REMARK  114  A    between atoms: _287  and  _289
REMARK  115  A    between atoms: _289  and  _290
REMARK  116  A    between atoms: _289  and  _292
REMARK  117  A    between atoms: _292  and  _293
REMARK  118  A    between atoms: _293  and  _294
REMARK  119  A    between atoms: _294  and  _295
REMARK  120  A    between atoms: _304  and  _306
REMARK  121  A    between atoms: _306  and  _307
REMARK  122  A    between atoms: _306  and  _309
REMARK  123  A    between atoms: _309  and  _310
REMARK  124  A    between atoms: _312  and  _314
REMARK  125  A    between atoms: _314  and  _315
REMARK  126  A    between atoms: _314  and  _317
REMARK  127  A    between atoms: _317  and  _318
REMARK  128  A    between atoms: _322  and  ZN_329
REMARK  129  A    between atoms: _323  and  _325
REMARK  130  A    between atoms: _325  and  _326
REMARK                            x       y       z     vdW  Elec       q    Type
REMARK                         _______ _______ _______ _____ _____    ______ ____
ROOT
ATOM      1  O   HOH     1       1.523  34.962  22.157  0.00  0.00    +0.000 OA
ENDROOT
TORSDOF 0
REMARK  Name = ../refined-set-2016/3t01/3t01_pocket.pdb
REMARK  130 active torsions:
REMARK  status: ('A' for Active; 'I' for Inactive)
REMARK    1  A    between atoms: _1  and  _3
REMARK    2  A    between atoms: _3  and  _4
REMARK    3  A    between atoms: _3  and  _6
REMARK    4  A    between atoms: _6  and  _7
REMARK    5  A    between atoms: _7  and  _8
REMARK    6  A    between atoms: _8  and  ZN_328
REMARK    7  A    between atoms: _10  and  _12
REMARK    8  A    between atoms: _12  and  _13
REMARK    9  A    between atoms: _16  and  _17
REMARK   10  A    between atoms: _22  and  _24
REMARK   11  A    between atoms: _24  and  _25
REMARK   12  A    between atoms: _24  and  _27
REMARK   13  A    between atoms: _27  and  _28
REMARK   14  A    between atoms: _30  and  _32
REMARK   15  A    between atoms: _32  and  _33
REMARK   16  A    between atoms: _32  and  _35
REMARK   17  A    between atoms: _35  and  _36
REMARK   18  A    between atoms: _42  and  _44
REMARK   19  A    between atoms: _44  and  _45
REMARK   20  A    between atoms: _44  and  _47
REMARK   21  A    between atoms: _47  and  _48
REMARK   22  A    between atoms: _51  and  _53
REMARK   23  A    between atoms: _53  and  _54
REMARK   24  A    between atoms: _53  and  _56
REMARK   25  A    between atoms: _56  and  _57
REMARK   26  A    between atoms: _63  and  _64
REMARK   27  A    between atoms: _69  and  _71
REMARK   28  A    between atoms: _71  and  _72
REMARK   29  A    between atoms: _71  and  _74
REMARK   30  A    between atoms: _74  and  _75
REMARK   31  A    between atoms: _80  and  _82
REMARK   32  A    between atoms: _82  and  _83
REMARK   33  A    between atoms: _82  and  _85
REMARK   34  A    between atoms: _85  and  _86
REMARK   35  A    between atoms: _91  and  _93
REMARK   36  A    between atoms: _93  and  _94
REMARK   37  A    between atoms: _96  and  _98
REMARK   38  A    between atoms: _98  and  _99
REMARK   39  A    between atoms: _98  and  _101
REMARK   40  A    between atoms: _101  and  _102
REMARK   41  A    between atoms: _107  and  _109
REMARK   42  A    between atoms: _109  and  _110
REMARK   43  A    between atoms: _109  and  _112
REMARK   44  A    between atoms: _112  and  _113
REMARK   45  A    between atoms: _113  and  _114
REMARK   46  A    between atoms: _114  and  _115
REMARK   47  A    between atoms: _115  and  _116
REMARK   48  A    between atoms: _120  and  _122
REMARK   49  A    between atoms: _122  and  _123
REMARK   50  A    between atoms: _122  and  _125
REMARK   51  A    between atoms: _125  and  _126
REMARK   52  A    between atoms: _126  and  _127
REMARK   53  A    between atoms: _127  and  _128
REMARK   54  A    between atoms: _128  and  _129
REMARK   55  A    between atoms: _133  and  _135
REMARK   56  A    between atoms: _135  and  _136
REMARK   57  A    between atoms: _135  and  _138
REMARK   58  A    between atoms: _138  and  _139
REMARK   59  A    between atoms: _144  and  _145
REMARK   60  A    between atoms: _147  and  _149
REMARK   61  A    between atoms: _149  and  _150
REMARK   62  A    between atoms: _149  and  _152
REMARK   63  A    between atoms: _152  and  _153
REMARK   64  A    between atoms: _156  and  _158
REMARK   65  A    between atoms: _158  and  _159
REMARK   66  A    between atoms: _158  and  _161
REMARK   67  A    between atoms: _161  and  _162
REMARK   68  A    between atoms: _165  and  _167
REMARK   69  A    between atoms: _167  and  _168
REMARK   70  A    between atoms: _167  and  _170
REMARK   71  A    between atoms: _170  and  _171
REMARK   72  A    between atoms: _171  and  _173
REMARK   73  A    between atoms: _173  and  ZN_329
REMARK   74  A    between atoms: _174  and  _176
REMARK   75  A    between atoms: _176  and  _177
REMARK   76  A    between atoms: _176  and  _179
REMARK   77  A    between atoms: _179  and  _180
REMARK   78  A    between atoms: _185  and  _186
REMARK   79  A    between atoms: _188  and  _190
REMARK   80  A    between atoms: _190  and  _191
REMARK   81  A    between atoms: _190  and  _193
REMARK   82  A    between atoms: _193  and  _194
REMARK   83  A    between atoms: _198  and  ZN_329
REMARK   84  A    between atoms: _199  and  _201
REMARK   85  A    between atoms: _210  and  _211
REMARK   86  A    between atoms: _219  and  _221
REMARK   87  A    between atoms: _221  and  _222
REMARK   88  A    between atoms: _221  and  _224
REMARK   89  A    between atoms: _224  and  _225
REMARK   90  A    between atoms: _225  and  _226
REMARK   91  A    between atoms: _229  and  _230
REMARK   92  A    between atoms: _235  and  _237
REMARK   93  A    between atoms: _237  and  _238
REMARK   94  A    between atoms: _237  and  _240
REMARK   95  A    between atoms: _240  and  _241
REMARK   96  A    between atoms: _244  and  _246
REMARK   97  A    between atoms: _246  and  _247
REMARK   98  A    between atoms: _246  and  _249
REMARK   99  A    between atoms: _249  and  _250
REMARK  100  A    between atoms: _253  and  _255
REMARK  101  A    between atoms: _255  and  _256
REMARK  102  A    between atoms: _255  and  _258
REMARK  103  A    between atoms: _258  and  _259
REMARK  104  A    between atoms: _262  and  _264
REMARK  105  A    between atoms: _264  and  _265
REMARK  106  A    between atoms: _267  and  _269
REMARK  107  A    between atoms: _269  and  _270
REMARK  108  A    between atoms: _273  and  _275
REMARK  109  A    between atoms: _275  and  _276
REMARK  110  A    between atoms: _275  and  _278
REMARK  111  A    between atoms: _278  and  _279
REMARK  112  A    between atoms: _282  and  _284
REMARK  113  A    between atoms: _284  and  _285
REMARK  114  A    between atoms: _287  and  _289
REMARK  115  A    between atoms: _289  and  _290
REMARK  116  A    between atoms: _289  and  _292
REMARK  117  A    between atoms: _292  and  _293
REMARK  118  A    between atoms: _293  and  _294
REMARK  119  A    between atoms: _294  and  _295
REMARK  120  A    between atoms: _304  and  _306
REMARK  121  A    between atoms: _306  and  _307
REMARK  122  A    between atoms: _306  and  _309
REMARK  123  A    between atoms: _309  and  _310
REMARK  124  A    between atoms: _312  and  _314
REMARK  125  A    between atoms: _314  and  _315
REMARK  126  A    between atoms: _314  and  _317
REMARK  127  A    between atoms: _317  and  _318
REMARK  128  A    between atoms: _322  and  ZN_329
REMARK  129  A    between atoms: _323  and  _325
REMARK  130  A    between atoms: _325  and  _326
REMARK                            x       y       z     vdW  Elec       q    Type
REMARK                         _______ _______ _______ _____ _____    ______ ____
ROOT
ATOM      1  O   HOH     1       3.177  28.313  19.533  0.00  0.00    +0.000 OA
ENDROOT
TORSDOF 0
REMARK  Name = ../refined-set-2016/3t01/3t01_pocket.pdb
REMARK  130 active torsions:
REMARK  status: ('A' for Active; 'I' for Inactive)
REMARK    1  A    between atoms: _1  and  _3
REMARK    2  A    between atoms: _3  and  _4
REMARK    3  A    between atoms: _3  and  _6
REMARK    4  A    between atoms: _6  and  _7
REMARK    5  A    between atoms: _7  and  _8
REMARK    6  A    between atoms: _8  and  ZN_328
REMARK    7  A    between atoms: _10  and  _12
REMARK    8  A    between atoms: _12  and  _13
REMARK    9  A    between atoms: _16  and  _17
REMARK   10  A    between atoms: _22  and  _24
REMARK   11  A    between atoms: _24  and  _25
REMARK   12  A    between atoms: _24  and  _27
REMARK   13  A    between atoms: _27  and  _28
REMARK   14  A    between atoms: _30  and  _32
REMARK   15  A    between atoms: _32  and  _33
REMARK   16  A    between atoms: _32  and  _35
REMARK   17  A    between atoms: _35  and  _36
REMARK   18  A    between atoms: _42  and  _44
REMARK   19  A    between atoms: _44  and  _45
REMARK   20  A    between atoms: _44  and  _47
REMARK   21  A    between atoms: _47  and  _48
REMARK   22  A    between atoms: _51  and  _53
REMARK   23  A    between atoms: _53  and  _54
REMARK   24  A    between atoms: _53  and  _56
REMARK   25  A    between atoms: _56  and  _57
REMARK   26  A    between atoms: _63  and  _64
REMARK   27  A    between atoms: _69  and  _71
REMARK   28  A    between atoms: _71  and  _72
REMARK   29  A    between atoms: _71  and  _74
REMARK   30  A    between atoms: _74  and  _75
REMARK   31  A    between atoms: _80  and  _82
REMARK   32  A    between atoms: _82  and  _83
REMARK   33  A    between atoms: _82  and  _85
REMARK   34  A    between atoms: _85  and  _86
REMARK   35  A    between atoms: _91  and  _93
REMARK   36  A    between atoms: _93  and  _94
REMARK   37  A    between atoms: _96  and  _98
REMARK   38  A    between atoms: _98  and  _99
REMARK   39  A    between atoms: _98  and  _101
REMARK   40  A    between atoms: _101  and  _102
REMARK   41  A    between atoms: _107  and  _109
REMARK   42  A    between atoms: _109  and  _110
REMARK   43  A    between atoms: _109  and  _112
REMARK   44  A    between atoms: _112  and  _113
REMARK   45  A    between atoms: _113  and  _114
REMARK   46  A    between atoms: _114  and  _115
REMARK   47  A    between atoms: _115  and  _116
REMARK   48  A    between atoms: _120  and  _122
REMARK   49  A    between atoms: _122  and  _123
REMARK   50  A    between atoms: _122  and  _125
REMARK   51  A    between atoms: _125  and  _126
REMARK   52  A    between atoms: _126  and  _127
REMARK   53  A    between atoms: _127  and  _128
REMARK   54  A    between atoms: _128  and  _129
REMARK   55  A    between atoms: _133  and  _135
REMARK   56  A    between atoms: _135  and  _136
REMARK   57  A    between atoms: _135  and  _138
REMARK   58  A    between atoms: _138  and  _139
REMARK   59  A    between atoms: _144  and  _145
REMARK   60  A    between atoms: _147  and  _149
REMARK   61  A    between atoms: _149  and  _150
REMARK   62  A    between atoms: _149  and  _152
REMARK   63  A    between atoms: _152  and  _153
REMARK   64  A    between atoms: _156  and  _158
REMARK   65  A    between atoms: _158  and  _159
REMARK   66  A    between atoms: _158  and  _161
REMARK   67  A    between atoms: _161  and  _162
REMARK   68  A    between atoms: _165  and  _167
REMARK   69  A    between atoms: _167  and  _168
REMARK   70  A    between atoms: _167  and  _170
REMARK   71  A    between atoms: _170  and  _171
REMARK   72  A    between atoms: _171  and  _173
REMARK   73  A    between atoms: _173  and  ZN_329
REMARK   74  A    between atoms: _174  and  _176
REMARK   75  A    between atoms: _176  and  _177
REMARK   76  A    between atoms: _176  and  _179
REMARK   77  A    between atoms: _179  and  _180
REMARK   78  A    between atoms: _185  and  _186
REMARK   79  A    between atoms: _188  and  _190
REMARK   80  A    between atoms: _190  and  _191
REMARK   81  A    between atoms: _190  and  _193
REMARK   82  A    between atoms: _193  and  _194
REMARK   83  A    between atoms: _198  and  ZN_329
REMARK   84  A    between atoms: _199  and  _201
REMARK   85  A    between atoms: _210  and  _211
REMARK   86  A    between atoms: _219  and  _221
REMARK   87  A    between atoms: _221  and  _222
REMARK   88  A    between atoms: _221  and  _224
REMARK   89  A    between atoms: _224  and  _225
REMARK   90  A    between atoms: _225  and  _226
REMARK   91  A    between atoms: _229  and  _230
REMARK   92  A    between atoms: _235  and  _237
REMARK   93  A    between atoms: _237  and  _238
REMARK   94  A    between atoms: _237  and  _240
REMARK   95  A    between atoms: _240  and  _241
REMARK   96  A    between atoms: _244  and  _246
REMARK   97  A    between atoms: _246  and  _247
REMARK   98  A    between atoms: _246  and  _249
REMARK   99  A    between atoms: _249  and  _250
REMARK  100  A    between atoms: _253  and  _255
REMARK  101  A    between atoms: _255  and  _256
REMARK  102  A    between atoms: _255  and  _258
REMARK  103  A    between atoms: _258  and  _259
REMARK  104  A    between atoms: _262  and  _264
REMARK  105  A    between atoms: _264  and  _265
REMARK  106  A    between atoms: _267  and  _269
REMARK  107  A    between atoms: _269  and  _270
REMARK  108  A    between atoms: _273  and  _275
REMARK  109  A    between atoms: _275  and  _276
REMARK  110  A    between atoms: _275  and  _278
REMARK  111  A    between atoms: _278  and  _279
REMARK  112  A    between atoms: _282  and  _284
REMARK  113  A    between atoms: _284  and  _285
REMARK  114  A    between atoms: _287  and  _289
REMARK  115  A    between atoms: _289  and  _290
REMARK  116  A    between atoms: _289  and  _292
REMARK  117  A    between atoms: _292  and  _293
REMARK  118  A    between atoms: _293  and  _294
REMARK  119  A    between atoms: _294  and  _295
REMARK  120  A    between atoms: _304  and  _306
REMARK  121  A    between atoms: _306  and  _307
REMARK  122  A    between atoms: _306  and  _309
REMARK  123  A    between atoms: _309  and  _310
REMARK  124  A    between atoms: _312  and  _314
REMARK  125  A    between atoms: _314  and  _315
REMARK  126  A    between atoms: _314  and  _317
REMARK  127  A    between atoms: _317  and  _318
REMARK  128  A    between atoms: _322  and  ZN_329
REMARK  129  A    between atoms: _323  and  _325
REMARK  130  A    between atoms: _325  and  _326
REMARK                            x       y       z     vdW  Elec       q    Type
REMARK                         _______ _______ _______ _____ _____    ______ ____
ROOT
ATOM      1  O   HOH     1       0.660  34.726  18.838  0.00  0.00    +0.000 OA
ENDROOT
TORSDOF 0
REMARK  Name = ../refined-set-2016/3t01/3t01_pocket.pdb
REMARK  130 active torsions:
REMARK  status: ('A' for Active; 'I' for Inactive)
REMARK    1  A    between atoms: _1  and  _3
REMARK    2  A    between atoms: _3  and  _4
REMARK    3  A    between atoms: _3  and  _6
REMARK    4  A    between atoms: _6  and  _7
REMARK    5  A    between atoms: _7  and  _8
REMARK    6  A    between atoms: _8  and  ZN_328
REMARK    7  A    between atoms: _10  and  _12
REMARK    8  A    between atoms: _12  and  _13
REMARK    9  A    between atoms: _16  and  _17
REMARK   10  A    between atoms: _22  and  _24
REMARK   11  A    between atoms: _24  and  _25
REMARK   12  A    between atoms: _24  and  _27
REMARK   13  A    between atoms: _27  and  _28
REMARK   14  A    between atoms: _30  and  _32
REMARK   15  A    between atoms: _32  and  _33
REMARK   16  A    between atoms: _32  and  _35
REMARK   17  A    between atoms: _35  and  _36
REMARK   18  A    between atoms: _42  and  _44
REMARK   19  A    between atoms: _44  and  _45
REMARK   20  A    between atoms: _44  and  _47
REMARK   21  A    between atoms: _47  and  _48
REMARK   22  A    between atoms: _51  and  _53
REMARK   23  A    between atoms: _53  and  _54
REMARK   24  A    between atoms: _53  and  _56
REMARK   25  A    between atoms: _56  and  _57
REMARK   26  A    between atoms: _63  and  _64
REMARK   27  A    between atoms: _69  and  _71
REMARK   28  A    between atoms: _71  and  _72
REMARK   29  A    between atoms: _71  and  _74
REMARK   30  A    between atoms: _74  and  _75
REMARK   31  A    between atoms: _80  and  _82
REMARK   32  A    between atoms: _82  and  _83
REMARK   33  A    between atoms: _82  and  _85
REMARK   34  A    between atoms: _85  and  _86
REMARK   35  A    between atoms: _91  and  _93
REMARK   36  A    between atoms: _93  and  _94
REMARK   37  A    between atoms: _96  and  _98
REMARK   38  A    between atoms: _98  and  _99
REMARK   39  A    between atoms: _98  and  _101
REMARK   40  A    between atoms: _101  and  _102
REMARK   41  A    between atoms: _107  and  _109
REMARK   42  A    between atoms: _109  and  _110
REMARK   43  A    between atoms: _109  and  _112
REMARK   44  A    between atoms: _112  and  _113
REMARK   45  A    between atoms: _113  and  _114
REMARK   46  A    between atoms: _114  and  _115
REMARK   47  A    between atoms: _115  and  _116
REMARK   48  A    between atoms: _120  and  _122
REMARK   49  A    between atoms: _122  and  _123
REMARK   50  A    between atoms: _122  and  _125
REMARK   51  A    between atoms: _125  and  _126
REMARK   52  A    between atoms: _126  and  _127
REMARK   53  A    between atoms: _127  and  _128
REMARK   54  A    between atoms: _128  and  _129
REMARK   55  A    between atoms: _133  and  _135
REMARK   56  A    between atoms: _135  and  _136
REMARK   57  A    between atoms: _135  and  _138
REMARK   58  A    between atoms: _138  and  _139
REMARK   59  A    between atoms: _144  and  _145
REMARK   60  A    between atoms: _147  and  _149
REMARK   61  A    between atoms: _149  and  _150
REMARK   62  A    between atoms: _149  and  _152
REMARK   63  A    between atoms: _152  and  _153
REMARK   64  A    between atoms: _156  and  _158
REMARK   65  A    between atoms: _158  and  _159
REMARK   66  A    between atoms: _158  and  _161
REMARK   67  A    between atoms: _161  and  _162
REMARK   68  A    between atoms: _165  and  _167
REMARK   69  A    between atoms: _167  and  _168
REMARK   70  A    between atoms: _167  and  _170
REMARK   71  A    between atoms: _170  and  _171
REMARK   72  A    between atoms: _171  and  _173
REMARK   73  A    between atoms: _173  and  ZN_329
REMARK   74  A    between atoms: _174  and  _176
REMARK   75  A    between atoms: _176  and  _177
REMARK   76  A    between atoms: _176  and  _179
REMARK   77  A    between atoms: _179  and  _180
REMARK   78  A    between atoms: _185  and  _186
REMARK   79  A    between atoms: _188  and  _190
REMARK   80  A    between atoms: _190  and  _191
REMARK   81  A    between atoms: _190  and  _193
REMARK   82  A    between atoms: _193  and  _194
REMARK   83  A    between atoms: _198  and  ZN_329
REMARK   84  A    between atoms: _199  and  _201
REMARK   85  A    between atoms: _210  and  _211
REMARK   86  A    between atoms: _219  and  _221
REMARK   87  A    between atoms: _221  and  _222
REMARK   88  A    between atoms: _221  and  _224
REMARK   89  A    between atoms: _224  and  _225
REMARK   90  A    between atoms: _225  and  _226
REMARK   91  A    between atoms: _229  and  _230
REMARK   92  A    between atoms: _235  and  _237
REMARK   93  A    between atoms: _237  and  _238
REMARK   94  A    between atoms: _237  and  _240
REMARK   95  A    between atoms: _240  and  _241
REMARK   96  A    between atoms: _244  and  _246
REMARK   97  A    between atoms: _246  and  _247
REMARK   98  A    between atoms: _246  and  _249
REMARK   99  A    between atoms: _249  and  _250
REMARK  100  A    between atoms: _253  and  _255
REMARK  101  A    between atoms: _255  and  _256
REMARK  102  A    between atoms: _255  and  _258
REMARK  103  A    between atoms: _258  and  _259
REMARK  104  A    between atoms: _262  and  _264
REMARK  105  A    between atoms: _264  and  _265
REMARK  106  A    between atoms: _267  and  _269
REMARK  107  A    between atoms: _269  and  _270
REMARK  108  A    between atoms: _273  and  _275
REMARK  109  A    between atoms: _275  and  _276
REMARK  110  A    between atoms: _275  and  _278
REMARK  111  A    between atoms: _278  and  _279
REMARK  112  A    between atoms: _282  and  _284
REMARK  113  A    between atoms: _284  and  _285
REMARK  114  A    between atoms: _287  and  _289
REMARK  115  A    between atoms: _289  and  _290
REMARK  116  A    between atoms: _289  and  _292
REMARK  117  A    between atoms: _292  and  _293
REMARK  118  A    between atoms: _293  and  _294
REMARK  119  A    between atoms: _294  and  _295
REMARK  120  A    between atoms: _304  and  _306
REMARK  121  A    between atoms: _306  and  _307
REMARK  122  A    between atoms: _306  and  _309
REMARK  123  A    between atoms: _309  and  _310
REMARK  124  A    between atoms: _312  and  _314
REMARK  125  A    between atoms: _314  and  _315
REMARK  126  A    between atoms: _314  and  _317
REMARK  127  A    between atoms: _317  and  _318
REMARK  128  A    between atoms: _322  and  ZN_329
REMARK  129  A    between atoms: _323  and  _325
REMARK  130  A    between atoms: _325  and  _326
REMARK                            x       y       z     vdW  Elec       q    Type
REMARK                         _______ _______ _______ _____ _____    ______ ____
ROOT
ATOM      1  O   HOH     1       3.583  31.906  27.627  0.00  0.00    +0.000 OA
ENDROOT
TORSDOF 0
REMARK  Name = ../refined-set-2016/3t01/3t01_pocket.pdb
REMARK  130 active torsions:
REMARK  status: ('A' for Active; 'I' for Inactive)
REMARK    1  A    between atoms: _1  and  _3
REMARK    2  A    between atoms: _3  and  _4
REMARK    3  A    between atoms: _3  and  _6
REMARK    4  A    between atoms: _6  and  _7
REMARK    5  A    between atoms: _7  and  _8
REMARK    6  A    between atoms: _8  and  ZN_328
REMARK    7  A    between atoms: _10  and  _12
REMARK    8  A    between atoms: _12  and  _13
REMARK    9  A    between atoms: _16  and  _17
REMARK   10  A    between atoms: _22  and  _24
REMARK   11  A    between atoms: _24  and  _25
REMARK   12  A    between atoms: _24  and  _27
REMARK   13  A    between atoms: _27  and  _28
REMARK   14  A    between atoms: _30  and  _32
REMARK   15  A    between atoms: _32  and  _33
REMARK   16  A    between atoms: _32  and  _35
REMARK   17  A    between atoms: _35  and  _36
REMARK   18  A    between atoms: _42  and  _44
REMARK   19  A    between atoms: _44  and  _45
REMARK   20  A    between atoms: _44  and  _47
REMARK   21  A    between atoms: _47  and  _48
REMARK   22  A    between atoms: _51  and  _53
REMARK   23  A    between atoms: _53  and  _54
REMARK   24  A    between atoms: _53  and  _56
REMARK   25  A    between atoms: _56  and  _57
REMARK   26  A    between atoms: _63  and  _64
REMARK   27  A    between atoms: _69  and  _71
REMARK   28  A    between atoms: _71  and  _72
REMARK   29  A    between atoms: _71  and  _74
REMARK   30  A    between atoms: _74  and  _75
REMARK   31  A    between atoms: _80  and  _82
REMARK   32  A    between atoms: _82  and  _83
REMARK   33  A    between atoms: _82  and  _85
REMARK   34  A    between atoms: _85  and  _86
REMARK   35  A    between atoms: _91  and  _93
REMARK   36  A    between atoms: _93  and  _94
REMARK   37  A    between atoms: _96  and  _98
REMARK   38  A    between atoms: _98  and  _99
REMARK   39  A    between atoms: _98  and  _101
REMARK   40  A    between atoms: _101  and  _102
REMARK   41  A    between atoms: _107  and  _109
REMARK   42  A    between atoms: _109  and  _110
REMARK   43  A    between atoms: _109  and  _112
REMARK   44  A    between atoms: _112  and  _113
REMARK   45  A    between atoms: _113  and  _114
REMARK   46  A    between atoms: _114  and  _115
REMARK   47  A    between atoms: _115  and  _116
REMARK   48  A    between atoms: _120  and  _122
REMARK   49  A    between atoms: _122  and  _123
REMARK   50  A    between atoms: _122  and  _125
REMARK   51  A    between atoms: _125  and  _126
REMARK   52  A    between atoms: _126  and  _127
REMARK   53  A    between atoms: _127  and  _128
REMARK   54  A    between atoms: _128  and  _129
REMARK   55  A    between atoms: _133  and  _135
REMARK   56  A    between atoms: _135  and  _136
REMARK   57  A    between atoms: _135  and  _138
REMARK   58  A    between atoms: _138  and  _139
REMARK   59  A    between atoms: _144  and  _145
REMARK   60  A    between atoms: _147  and  _149
REMARK   61  A    between atoms: _149  and  _150
REMARK   62  A    between atoms: _149  and  _152
REMARK   63  A    between atoms: _152  and  _153
REMARK   64  A    between atoms: _156  and  _158
REMARK   65  A    between atoms: _158  and  _159
REMARK   66  A    between atoms: _158  and  _161
REMARK   67  A    between atoms: _161  and  _162
REMARK   68  A    between atoms: _165  and  _167
REMARK   69  A    between atoms: _167  and  _168
REMARK   70  A    between atoms: _167  and  _170
REMARK   71  A    between atoms: _170  and  _171
REMARK   72  A    between atoms: _171  and  _173
REMARK   73  A    between atoms: _173  and  ZN_329
REMARK   74  A    between atoms: _174  and  _176
REMARK   75  A    between atoms: _176  and  _177
REMARK   76  A    between atoms: _176  and  _179
REMARK   77  A    between atoms: _179  and  _180
REMARK   78  A    between atoms: _185  and  _186
REMARK   79  A    between atoms: _188  and  _190
REMARK   80  A    between atoms: _190  and  _191
REMARK   81  A    between atoms: _190  and  _193
REMARK   82  A    between atoms: _193  and  _194
REMARK   83  A    between atoms: _198  and  ZN_329
REMARK   84  A    between atoms: _199  and  _201
REMARK   85  A    between atoms: _210  and  _211
REMARK   86  A    between atoms: _219  and  _221
REMARK   87  A    between atoms: _221  and  _222
REMARK   88  A    between atoms: _221  and  _224
REMARK   89  A    between atoms: _224  and  _225
REMARK   90  A    between atoms: _225  and  _226
REMARK   91  A    between atoms: _229  and  _230
REMARK   92  A    between atoms: _235  and  _237
REMARK   93  A    between atoms: _237  and  _238
REMARK   94  A    between atoms: _237  and  _240
REMARK   95  A    between atoms: _240  and  _241
REMARK   96  A    between atoms: _244  and  _246
REMARK   97  A    between atoms: _246  and  _247
REMARK   98  A    between atoms: _246  and  _249
REMARK   99  A    between atoms: _249  and  _250
REMARK  100  A    between atoms: _253  and  _255
REMARK  101  A    between atoms: _255  and  _256
REMARK  102  A    between atoms: _255  and  _258
REMARK  103  A    between atoms: _258  and  _259
REMARK  104  A    between atoms: _262  and  _264
REMARK  105  A    between atoms: _264  and  _265
REMARK  106  A    between atoms: _267  and  _269
REMARK  107  A    between atoms: _269  and  _270
REMARK  108  A    between atoms: _273  and  _275
REMARK  109  A    between atoms: _275  and  _276
REMARK  110  A    between atoms: _275  and  _278
REMARK  111  A    between atoms: _278  and  _279
REMARK  112  A    between atoms: _282  and  _284
REMARK  113  A    between atoms: _284  and  _285
REMARK  114  A    between atoms: _287  and  _289
REMARK  115  A    between atoms: _289  and  _290
REMARK  116  A    between atoms: _289  and  _292
REMARK  117  A    between atoms: _292  and  _293
REMARK  118  A    between atoms: _293  and  _294
REMARK  119  A    between atoms: _294  and  _295
REMARK  120  A    between atoms: _304  and  _306
REMARK  121  A    between atoms: _306  and  _307
REMARK  122  A    between atoms: _306  and  _309
REMARK  123  A    between atoms: _309  and  _310
REMARK  124  A    between atoms: _312  and  _314
REMARK  125  A    between atoms: _314  and  _315
REMARK  126  A    between atoms: _314  and  _317
REMARK  127  A    between atoms: _317  and  _318
REMARK  128  A    between atoms: _322  and  ZN_329
REMARK  129  A    between atoms: _323  and  _325
REMARK  130  A    between atoms: _325  and  _326
REMARK                            x       y       z     vdW  Elec       q    Type
REMARK                         _______ _______ _______ _____ _____    ______ ____
ROOT
ATOM      1  O   HOH     1       0.341  27.568  16.049  0.00  0.00    +0.000 OA
ENDROOT
TORSDOF 0
REMARK  Name = ../refined-set-2016/3t01/3t01_pocket.pdb
REMARK  130 active torsions:
REMARK  status: ('A' for Active; 'I' for Inactive)
REMARK    1  A    between atoms: _1  and  _3
REMARK    2  A    between atoms: _3  and  _4
REMARK    3  A    between atoms: _3  and  _6
REMARK    4  A    between atoms: _6  and  _7
REMARK    5  A    between atoms: _7  and  _8
REMARK    6  A    between atoms: _8  and  ZN_328
REMARK    7  A    between atoms: _10  and  _12
REMARK    8  A    between atoms: _12  and  _13
REMARK    9  A    between atoms: _16  and  _17
REMARK   10  A    between atoms: _22  and  _24
REMARK   11  A    between atoms: _24  and  _25
REMARK   12  A    between atoms: _24  and  _27
REMARK   13  A    between atoms: _27  and  _28
REMARK   14  A    between atoms: _30  and  _32
REMARK   15  A    between atoms: _32  and  _33
REMARK   16  A    between atoms: _32  and  _35
REMARK   17  A    between atoms: _35  and  _36
REMARK   18  A    between atoms: _42  and  _44
REMARK   19  A    between atoms: _44  and  _45
REMARK   20  A    between atoms: _44  and  _47
REMARK   21  A    between atoms: _47  and  _48
REMARK   22  A    between atoms: _51  and  _53
REMARK   23  A    between atoms: _53  and  _54
REMARK   24  A    between atoms: _53  and  _56
REMARK   25  A    between atoms: _56  and  _57
REMARK   26  A    between atoms: _63  and  _64
REMARK   27  A    between atoms: _69  and  _71
REMARK   28  A    between atoms: _71  and  _72
REMARK   29  A    between atoms: _71  and  _74
REMARK   30  A    between atoms: _74  and  _75
REMARK   31  A    between atoms: _80  and  _82
REMARK   32  A    between atoms: _82  and  _83
REMARK   33  A    between atoms: _82  and  _85
REMARK   34  A    between atoms: _85  and  _86
REMARK   35  A    between atoms: _91  and  _93
REMARK   36  A    between atoms: _93  and  _94
REMARK   37  A    between atoms: _96  and  _98
REMARK   38  A    between atoms: _98  and  _99
REMARK   39  A    between atoms: _98  and  _101
REMARK   40  A    between atoms: _101  and  _102
REMARK   41  A    between atoms: _107  and  _109
REMARK   42  A    between atoms: _109  and  _110
REMARK   43  A    between atoms: _109  and  _112
REMARK   44  A    between atoms: _112  and  _113
REMARK   45  A    between atoms: _113  and  _114
REMARK   46  A    between atoms: _114  and  _115
REMARK   47  A    between atoms: _115  and  _116
REMARK   48  A    between atoms: _120  and  _122
REMARK   49  A    between atoms: _122  and  _123
REMARK   50  A    between atoms: _122  and  _125
REMARK   51  A    between atoms: _125  and  _126
REMARK   52  A    between atoms: _126  and  _127
REMARK   53  A    between atoms: _127  and  _128
REMARK   54  A    between atoms: _128  and  _129
REMARK   55  A    between atoms: _133  and  _135
REMARK   56  A    between atoms: _135  and  _136
REMARK   57  A    between atoms: _135  and  _138
REMARK   58  A    between atoms: _138  and  _139
REMARK   59  A    between atoms: _144  and  _145
REMARK   60  A    between atoms: _147  and  _149
REMARK   61  A    between atoms: _149  and  _150
REMARK   62  A    between atoms: _149  and  _152
REMARK   63  A    between atoms: _152  and  _153
REMARK   64  A    between atoms: _156  and  _158
REMARK   65  A    between atoms: _158  and  _159
REMARK   66  A    between atoms: _158  and  _161
REMARK   67  A    between atoms: _161  and  _162
REMARK   68  A    between atoms: _165  and  _167
REMARK   69  A    between atoms: _167  and  _168
REMARK   70  A    between atoms: _167  and  _170
REMARK   71  A    between atoms: _170  and  _171
REMARK   72  A    between atoms: _171  and  _173
REMARK   73  A    between atoms: _173  and  ZN_329
REMARK   74  A    between atoms: _174  and  _176
REMARK   75  A    between atoms: _176  and  _177
REMARK   76  A    between atoms: _176  and  _179
REMARK   77  A    between atoms: _179  and  _180
REMARK   78  A    between atoms: _185  and  _186
REMARK   79  A    between atoms: _188  and  _190
REMARK   80  A    between atoms: _190  and  _191
REMARK   81  A    between atoms: _190  and  _193
REMARK   82  A    between atoms: _193  and  _194
REMARK   83  A    between atoms: _198  and  ZN_329
REMARK   84  A    between atoms: _199  and  _201
REMARK   85  A    between atoms: _210  and  _211
REMARK   86  A    between atoms: _219  and  _221
REMARK   87  A    between atoms: _221  and  _222
REMARK   88  A    between atoms: _221  and  _224
REMARK   89  A    between atoms: _224  and  _225
REMARK   90  A    between atoms: _225  and  _226
REMARK   91  A    between atoms: _229  and  _230
REMARK   92  A    between atoms: _235  and  _237
REMARK   93  A    between atoms: _237  and  _238
REMARK   94  A    between atoms: _237  and  _240
REMARK   95  A    between atoms: _240  and  _241
REMARK   96  A    between atoms: _244  and  _246
REMARK   97  A    between atoms: _246  and  _247
REMARK   98  A    between atoms: _246  and  _249
REMARK   99  A    between atoms: _249  and  _250
REMARK  100  A    between atoms: _253  and  _255
REMARK  101  A    between atoms: _255  and  _256
REMARK  102  A    between atoms: _255  and  _258
REMARK  103  A    between atoms: _258  and  _259
REMARK  104  A    between atoms: _262  and  _264
REMARK  105  A    between atoms: _264  and  _265
REMARK  106  A    between atoms: _267  and  _269
REMARK  107  A    between atoms: _269  and  _270
REMARK  108  A    between atoms: _273  and  _275
REMARK  109  A    between atoms: _275  and  _276
REMARK  110  A    between atoms: _275  and  _278
REMARK  111  A    between atoms: _278  and  _279
REMARK  112  A    between atoms: _282  and  _284
REMARK  113  A    between atoms: _284  and  _285
REMARK  114  A    between atoms: _287  and  _289
REMARK  115  A    between atoms: _289  and  _290
REMARK  116  A    between atoms: _289  and  _292
REMARK  117  A    between atoms: _292  and  _293
REMARK  118  A    between atoms: _293  and  _294
REMARK  119  A    between atoms: _294  and  _295
REMARK  120  A    between atoms: _304  and  _306
REMARK  121  A    between atoms: _306  and  _307
REMARK  122  A    between atoms: _306  and  _309
REMARK  123  A    between atoms: _309  and  _310
REMARK  124  A    between atoms: _312  and  _314
REMARK  125  A    between atoms: _314  and  _315
REMARK  126  A    between atoms: _314  and  _317
REMARK  127  A    between atoms: _317  and  _318
REMARK  128  A    between atoms: _322  and  ZN_329
REMARK  129  A    between atoms: _323  and  _325
REMARK  130  A    between atoms: _325  and  _326
REMARK                            x       y       z     vdW  Elec       q    Type
REMARK                         _______ _______ _______ _____ _____    ______ ____
ROOT
ATOM      1  O   HOH     1       5.633  28.551  18.736  0.00  0.00    +0.000 OA
ENDROOT
TORSDOF 0
