REMARK  Name = ../refined-set-2016/4k5p/4k5p_pocket.pdb
REMARK  195 active torsions:
REMARK  status: ('A' for Active; 'I' for Inactive)
REMARK    1  A    between atoms: _1  and  _3
REMARK    2  A    between atoms: _3  and  _4
REMARK    3  A    between atoms: _3  and  _6
REMARK    4  A    between atoms: _6  and  _7
REMARK    5  A    between atoms: _10  and  _12
REMARK    6  A    between atoms: _12  and  _13
REMARK    7  A    between atoms: _12  and  _15
REMARK    8  A    between atoms: _15  and  _16
REMARK    9  A    between atoms: _19  and  _21
REMARK   10  A    between atoms: _21  and  _22
REMARK   11  A    between atoms: _21  and  _24
REMARK   12  A    between atoms: _24  and  _25
REMARK   13  A    between atoms: _25  and  _26
REMARK   14  A    between atoms: _31  and  _33
REMARK   15  A    between atoms: _33  and  _34
REMARK   16  A    between atoms: _33  and  _36
REMARK   17  A    between atoms: _38  and  _40
REMARK   18  A    between atoms: _40  and  _41
REMARK   19  A    between atoms: _40  and  _43
REMARK   20  A    between atoms: _43  and  _44
REMARK   21  A    between atoms: _44  and  _45
REMARK   22  A    between atoms: _48  and  _50
REMARK   23  A    between atoms: _50  and  _51
REMARK   24  A    between atoms: _54  and  _56
REMARK   25  A    between atoms: _56  and  _57
REMARK   26  A    between atoms: _56  and  _59
REMARK   27  A    between atoms: _59  and  _60
REMARK   28  A    between atoms: _63  and  _65
REMARK   29  A    between atoms: _65  and  _66
REMARK   30  A    between atoms: _68  and  _70
REMARK   31  A    between atoms: _70  and  _71
REMARK   32  A    between atoms: _70  and  _73
REMARK   33  A    between atoms: _73  and  _74
REMARK   34  A    between atoms: _79  and  _80
REMARK   35  A    between atoms: _82  and  _84
REMARK   36  A    between atoms: _84  and  _85
REMARK   37  A    between atoms: _84  and  _87
REMARK   38  A    between atoms: _87  and  _88
REMARK   39  A    between atoms: _91  and  _93
REMARK   40  A    between atoms: _93  and  _94
REMARK   41  A    between atoms: _93  and  _96
REMARK   42  A    between atoms: _96  and  _97
REMARK   43  A    between atoms: _103  and  _105
REMARK   44  A    between atoms: _105  and  _106
REMARK   45  A    between atoms: _105  and  _108
REMARK   46  A    between atoms: _108  and  _109
REMARK   47  A    between atoms: _114  and  _116
REMARK   48  A    between atoms: _116  and  _117
REMARK   49  A    between atoms: _116  and  _119
REMARK   50  A    between atoms: _122  and  _124
REMARK   51  A    between atoms: _124  and  _125
REMARK   52  A    between atoms: _127  and  _129
REMARK   53  A    between atoms: _129  and  _130
REMARK   54  A    between atoms: _133  and  _135
REMARK   55  A    between atoms: _135  and  _136
REMARK   56  A    between atoms: _135  and  _138
REMARK   57  A    between atoms: _138  and  _139
REMARK   58  A    between atoms: _139  and  _140
REMARK   59  A    between atoms: _142  and  _144
REMARK   60  A    between atoms: _144  and  _145
REMARK   61  A    between atoms: _144  and  _147
REMARK   62  A    between atoms: _147  and  _148
REMARK   63  A    between atoms: _148  and  _149
REMARK   64  A    between atoms: _152  and  _154
REMARK   65  A    between atoms: _154  and  _155
REMARK   66  A    between atoms: _154  and  _157
REMARK   67  A    between atoms: _157  and  _158
REMARK   68  A    between atoms: _163  and  _165
REMARK   69  A    between atoms: _165  and  _166
REMARK   70  A    between atoms: _165  and  _168
REMARK   71  A    between atoms: _168  and  _169
REMARK   72  A    between atoms: _172  and  _174
REMARK   73  A    between atoms: _174  and  _175
REMARK   74  A    between atoms: _174  and  _177
REMARK   75  A    between atoms: _177  and  _178
REMARK   76  A    between atoms: _183  and  _185
REMARK   77  A    between atoms: _185  and  _186
REMARK   78  A    between atoms: _185  and  _188
REMARK   79  A    between atoms: _188  and  _189
REMARK   80  A    between atoms: _189  and  _190
REMARK   81  A    between atoms: _190  and  _191
REMARK   82  A    between atoms: _200  and  _202
REMARK   83  A    between atoms: _202  and  _203
REMARK   84  A    between atoms: _202  and  _205
REMARK   85  A    between atoms: _208  and  _210
REMARK   86  A    between atoms: _210  and  _211
REMARK   87  A    between atoms: _210  and  _213
REMARK   88  A    between atoms: _213  and  _214
REMARK   89  A    between atoms: _218  and  ZN_473
REMARK   90  A    between atoms: _219  and  _221
REMARK   91  A    between atoms: _221  and  _222
REMARK   92  A    between atoms: _221  and  _224
REMARK   93  A    between atoms: _224  and  _225
REMARK   94  A    between atoms: _225  and  _226
REMARK   95  A    between atoms: _229  and  _231
REMARK   96  A    between atoms: _231  and  _232
REMARK   97  A    between atoms: _231  and  _234
REMARK   98  A    between atoms: _234  and  _235
REMARK   99  A    between atoms: _240  and  _241
REMARK  100  A    between atoms: _243  and  _245
REMARK  101  A    between atoms: _245  and  _246
REMARK  102  A    between atoms: _245  and  _248
REMARK  103  A    between atoms: _248  and  _249
REMARK  104  A    between atoms: _253  and  ZN_473
REMARK  105  A    between atoms: _254  and  _256
REMARK  106  A    between atoms: _256  and  _257
REMARK  107  A    between atoms: _256  and  _259
REMARK  108  A    between atoms: _259  and  _260
REMARK  109  A    between atoms: _263  and  _265
REMARK  110  A    between atoms: _265  and  _266
REMARK  111  A    between atoms: _265  and  _268
REMARK  112  A    between atoms: _268  and  _269
REMARK  113  A    between atoms: _274  and  _276
REMARK  114  A    between atoms: _276  and  _277
REMARK  115  A    between atoms: _276  and  _279
REMARK  116  A    between atoms: _279  and  _280
REMARK  117  A    between atoms: _290  and  _292
REMARK  118  A    between atoms: _292  and  _293
REMARK  119  A    between atoms: _292  and  _295
REMARK  120  A    between atoms: _295  and  _296
REMARK  121  A    between atoms: _299  and  _301
REMARK  122  A    between atoms: _301  and  _302
REMARK  123  A    between atoms: _301  and  _304
REMARK  124  A    between atoms: _304  and  _305
REMARK  125  A    between atoms: _305  and  _306
REMARK  126  A    between atoms: _306  and  _307
REMARK  127  A    between atoms: _307  and  _308
REMARK  128  A    between atoms: _312  and  _314
REMARK  129  A    between atoms: _314  and  _315
REMARK  130  A    between atoms: _314  and  _317
REMARK  131  A    between atoms: _317  and  _318
REMARK  132  A    between atoms: _318  and  _319
REMARK  133  A    between atoms: _319  and  _320
REMARK  134  A    between atoms: _320  and  ZN_473
REMARK  135  A    between atoms: _322  and  _324
REMARK  136  A    between atoms: _324  and  _325
REMARK  137  A    between atoms: _327  and  _329
REMARK  138  A    between atoms: _329  and  _330
REMARK  139  A    between atoms: _329  and  _332
REMARK  140  A    between atoms: _332  and  _333
REMARK  141  A    between atoms: _336  and  _338
REMARK  142  A    between atoms: _338  and  _339
REMARK  143  A    between atoms: _338  and  _341
REMARK  144  A    between atoms: _344  and  _346
REMARK  145  A    between atoms: _346  and  _347
REMARK  146  A    between atoms: _346  and  _349
REMARK  147  A    between atoms: _349  and  _350
REMARK  148  A    between atoms: _350  and  _351
REMARK  149  A    between atoms: _354  and  _356
REMARK  150  A    between atoms: _356  and  _357
REMARK  151  A    between atoms: _356  and  _359
REMARK  152  A    between atoms: _359  and  _360
REMARK  153  A    between atoms: _360  and  _361
REMARK  154  A    between atoms: _363  and  _365
REMARK  155  A    between atoms: _365  and  _366
REMARK  156  A    between atoms: _365  and  _368
REMARK  157  A    between atoms: _368  and  _369
REMARK  158  A    between atoms: _369  and  _370
REMARK  159  A    between atoms: _373  and  _375
REMARK  160  A    between atoms: _375  and  _376
REMARK  161  A    between atoms: _375  and  _378
REMARK  162  A    between atoms: _378  and  _379
REMARK  163  A    between atoms: _384  and  _386
REMARK  164  A    between atoms: _386  and  _387
REMARK  165  A    between atoms: _386  and  _389
REMARK  166  A    between atoms: _389  and  _390
REMARK  167  A    between atoms: _396  and  _398
REMARK  168  A    between atoms: _398  and  _399
REMARK  169  A    between atoms: _398  and  _401
REMARK  170  A    between atoms: _401  and  _402
REMARK  171  A    between atoms: _407  and  _408
REMARK  172  A    between atoms: _410  and  _412
REMARK  173  A    between atoms: _412  and  _413
REMARK  174  A    between atoms: _412  and  _415
REMARK  175  A    between atoms: _415  and  _416
REMARK  176  A    between atoms: _421  and  _422
REMARK  177  A    between atoms: _424  and  _426
REMARK  178  A    between atoms: _426  and  _427
REMARK  179  A    between atoms: _426  and  _429
REMARK  180  A    between atoms: _430  and  _431
REMARK  181  A    between atoms: _431  and  _432
REMARK  182  A    between atoms: _441  and  _443
REMARK  183  A    between atoms: _443  and  _444
REMARK  184  A    between atoms: _443  and  _446
REMARK  185  A    between atoms: _446  and  _447
REMARK  186  A    between atoms: _447  and  _448
REMARK  187  A    between atoms: _450  and  _452
REMARK  188  A    between atoms: _452  and  _453
REMARK  189  A    between atoms: _452  and  _455
REMARK  190  A    between atoms: _455  and  _456
REMARK  191  A    between atoms: _456  and  _457
REMARK  192  A    between atoms: _462  and  _464
REMARK  193  A    between atoms: _464  and  _465
REMARK  194  A    between atoms: _464  and  _467
REMARK  195  A    between atoms: _467  and  _468
REMARK                            x       y       z     vdW  Elec       q    Type
REMARK                         _______ _______ _______ _____ _____    ______ ____
ROOT
ATOM      1  C   LEU A   1      16.652  16.809  23.488  0.00  0.00    +0.238 C 
ATOM      2  N   THR A   2      15.640  17.095  24.306  0.00  0.00    -0.296 N 
ATOM      3  H   THR A   2      15.822  17.232  25.321  0.00  0.00    +0.150 HD
ATOM      4  O   LEU A   1      16.485  16.509  22.294  0.00  0.00    -0.274 OA
ENDROOT
BRANCH   1   5
ATOM      5  CA  LEU A   1      18.073  16.901  24.117  0.00  0.00    +0.145 C 
BRANCH   5   6
ATOM      6  N   LEU A   1      18.123  16.536  25.545  0.00  0.00    -0.238 NA
ATOM      7  H   LEU A   1      18.389  17.243  26.260  0.00  0.00    +0.142 HD
ENDBRANCH   5   6
BRANCH   5   8
ATOM      8  CB  LEU A   1      19.096  16.123  23.247  0.00  0.00    +0.026 C 
BRANCH   8   9
ATOM      9  CG  LEU A   1      20.457  15.912  23.985  0.00  0.00    +0.002 C 
ATOM     10  CD2 LEU A   1      21.094  17.262  24.589  0.00  0.00    +0.000 C 
ATOM     11  CD1 LEU A   1      21.446  15.257  23.025  0.00  0.00    +0.000 C 
ENDBRANCH   8   9
ENDBRANCH   5   8
ENDBRANCH   1   5
BRANCH   2  12
ATOM     12  CA  THR A   2      14.284  17.218  23.797  0.00  0.00    +0.164 C 
BRANCH  12  13
ATOM     13  C   THR A   2      13.694  18.509  24.394  0.00  0.00    +0.229 C 
ATOM     14  O   THR A   2      13.997  18.865  25.584  0.00  0.00    -0.286 OA
ENDBRANCH  12  13
BRANCH  12  15
ATOM     15  CB  THR A   2      13.471  15.947  24.180  0.00  0.00    +0.136 C 
ATOM     16  CG2 THR A   2      13.436  15.779  25.704  0.00  0.00    +0.034 C 
BRANCH  15  17
ATOM     17  OG1 THR A   2      12.127  16.062  23.667  0.00  0.00    -0.382 OA
ATOM     18  HG1 THR A   2      11.611  15.253  23.911  0.00  0.00    +0.210 HD
ENDBRANCH  15  17
ENDBRANCH  12  15
ENDBRANCH   2  12
TORSDOF 8
REMARK  Name = ../refined-set-2016/4k5p/4k5p_pocket.pdb
REMARK  195 active torsions:
REMARK  status: ('A' for Active; 'I' for Inactive)
REMARK    1  A    between atoms: _1  and  _3
REMARK    2  A    between atoms: _3  and  _4
REMARK    3  A    between atoms: _3  and  _6
REMARK    4  A    between atoms: _6  and  _7
REMARK    5  A    between atoms: _10  and  _12
REMARK    6  A    between atoms: _12  and  _13
REMARK    7  A    between atoms: _12  and  _15
REMARK    8  A    between atoms: _15  and  _16
REMARK    9  A    between atoms: _19  and  _21
REMARK   10  A    between atoms: _21  and  _22
REMARK   11  A    between atoms: _21  and  _24
REMARK   12  A    between atoms: _24  and  _25
REMARK   13  A    between atoms: _25  and  _26
REMARK   14  A    between atoms: _31  and  _33
REMARK   15  A    between atoms: _33  and  _34
REMARK   16  A    between atoms: _33  and  _36
REMARK   17  A    between atoms: _38  and  _40
REMARK   18  A    between atoms: _40  and  _41
REMARK   19  A    between atoms: _40  and  _43
REMARK   20  A    between atoms: _43  and  _44
REMARK   21  A    between atoms: _44  and  _45
REMARK   22  A    between atoms: _48  and  _50
REMARK   23  A    between atoms: _50  and  _51
REMARK   24  A    between atoms: _54  and  _56
REMARK   25  A    between atoms: _56  and  _57
REMARK   26  A    between atoms: _56  and  _59
REMARK   27  A    between atoms: _59  and  _60
REMARK   28  A    between atoms: _63  and  _65
REMARK   29  A    between atoms: _65  and  _66
REMARK   30  A    between atoms: _68  and  _70
REMARK   31  A    between atoms: _70  and  _71
REMARK   32  A    between atoms: _70  and  _73
REMARK   33  A    between atoms: _73  and  _74
REMARK   34  A    between atoms: _79  and  _80
REMARK   35  A    between atoms: _82  and  _84
REMARK   36  A    between atoms: _84  and  _85
REMARK   37  A    between atoms: _84  and  _87
REMARK   38  A    between atoms: _87  and  _88
REMARK   39  A    between atoms: _91  and  _93
REMARK   40  A    between atoms: _93  and  _94
REMARK   41  A    between atoms: _93  and  _96
REMARK   42  A    between atoms: _96  and  _97
REMARK   43  A    between atoms: _103  and  _105
REMARK   44  A    between atoms: _105  and  _106
REMARK   45  A    between atoms: _105  and  _108
REMARK   46  A    between atoms: _108  and  _109
REMARK   47  A    between atoms: _114  and  _116
REMARK   48  A    between atoms: _116  and  _117
REMARK   49  A    between atoms: _116  and  _119
REMARK   50  A    between atoms: _122  and  _124
REMARK   51  A    between atoms: _124  and  _125
REMARK   52  A    between atoms: _127  and  _129
REMARK   53  A    between atoms: _129  and  _130
REMARK   54  A    between atoms: _133  and  _135
REMARK   55  A    between atoms: _135  and  _136
REMARK   56  A    between atoms: _135  and  _138
REMARK   57  A    between atoms: _138  and  _139
REMARK   58  A    between atoms: _139  and  _140
REMARK   59  A    between atoms: _142  and  _144
REMARK   60  A    between atoms: _144  and  _145
REMARK   61  A    between atoms: _144  and  _147
REMARK   62  A    between atoms: _147  and  _148
REMARK   63  A    between atoms: _148  and  _149
REMARK   64  A    between atoms: _152  and  _154
REMARK   65  A    between atoms: _154  and  _155
REMARK   66  A    between atoms: _154  and  _157
REMARK   67  A    between atoms: _157  and  _158
REMARK   68  A    between atoms: _163  and  _165
REMARK   69  A    between atoms: _165  and  _166
REMARK   70  A    between atoms: _165  and  _168
REMARK   71  A    between atoms: _168  and  _169
REMARK   72  A    between atoms: _172  and  _174
REMARK   73  A    between atoms: _174  and  _175
REMARK   74  A    between atoms: _174  and  _177
REMARK   75  A    between atoms: _177  and  _178
REMARK   76  A    between atoms: _183  and  _185
REMARK   77  A    between atoms: _185  and  _186
REMARK   78  A    between atoms: _185  and  _188
REMARK   79  A    between atoms: _188  and  _189
REMARK   80  A    between atoms: _189  and  _190
REMARK   81  A    between atoms: _190  and  _191
REMARK   82  A    between atoms: _200  and  _202
REMARK   83  A    between atoms: _202  and  _203
REMARK   84  A    between atoms: _202  and  _205
REMARK   85  A    between atoms: _208  and  _210
REMARK   86  A    between atoms: _210  and  _211
REMARK   87  A    between atoms: _210  and  _213
REMARK   88  A    between atoms: _213  and  _214
REMARK   89  A    between atoms: _218  and  ZN_473
REMARK   90  A    between atoms: _219  and  _221
REMARK   91  A    between atoms: _221  and  _222
REMARK   92  A    between atoms: _221  and  _224
REMARK   93  A    between atoms: _224  and  _225
REMARK   94  A    between atoms: _225  and  _226
REMARK   95  A    between atoms: _229  and  _231
REMARK   96  A    between atoms: _231  and  _232
REMARK   97  A    between atoms: _231  and  _234
REMARK   98  A    between atoms: _234  and  _235
REMARK   99  A    between atoms: _240  and  _241
REMARK  100  A    between atoms: _243  and  _245
REMARK  101  A    between atoms: _245  and  _246
REMARK  102  A    between atoms: _245  and  _248
REMARK  103  A    between atoms: _248  and  _249
REMARK  104  A    between atoms: _253  and  ZN_473
REMARK  105  A    between atoms: _254  and  _256
REMARK  106  A    between atoms: _256  and  _257
REMARK  107  A    between atoms: _256  and  _259
REMARK  108  A    between atoms: _259  and  _260
REMARK  109  A    between atoms: _263  and  _265
REMARK  110  A    between atoms: _265  and  _266
REMARK  111  A    between atoms: _265  and  _268
REMARK  112  A    between atoms: _268  and  _269
REMARK  113  A    between atoms: _274  and  _276
REMARK  114  A    between atoms: _276  and  _277
REMARK  115  A    between atoms: _276  and  _279
REMARK  116  A    between atoms: _279  and  _280
REMARK  117  A    between atoms: _290  and  _292
REMARK  118  A    between atoms: _292  and  _293
REMARK  119  A    between atoms: _292  and  _295
REMARK  120  A    between atoms: _295  and  _296
REMARK  121  A    between atoms: _299  and  _301
REMARK  122  A    between atoms: _301  and  _302
REMARK  123  A    between atoms: _301  and  _304
REMARK  124  A    between atoms: _304  and  _305
REMARK  125  A    between atoms: _305  and  _306
REMARK  126  A    between atoms: _306  and  _307
REMARK  127  A    between atoms: _307  and  _308
REMARK  128  A    between atoms: _312  and  _314
REMARK  129  A    between atoms: _314  and  _315
REMARK  130  A    between atoms: _314  and  _317
REMARK  131  A    between atoms: _317  and  _318
REMARK  132  A    between atoms: _318  and  _319
REMARK  133  A    between atoms: _319  and  _320
REMARK  134  A    between atoms: _320  and  ZN_473
REMARK  135  A    between atoms: _322  and  _324
REMARK  136  A    between atoms: _324  and  _325
REMARK  137  A    between atoms: _327  and  _329
REMARK  138  A    between atoms: _329  and  _330
REMARK  139  A    between atoms: _329  and  _332
REMARK  140  A    between atoms: _332  and  _333
REMARK  141  A    between atoms: _336  and  _338
REMARK  142  A    between atoms: _338  and  _339
REMARK  143  A    between atoms: _338  and  _341
REMARK  144  A    between atoms: _344  and  _346
REMARK  145  A    between atoms: _346  and  _347
REMARK  146  A    between atoms: _346  and  _349
REMARK  147  A    between atoms: _349  and  _350
REMARK  148  A    between atoms: _350  and  _351
REMARK  149  A    between atoms: _354  and  _356
REMARK  150  A    between atoms: _356  and  _357
REMARK  151  A    between atoms: _356  and  _359
REMARK  152  A    between atoms: _359  and  _360
REMARK  153  A    between atoms: _360  and  _361
REMARK  154  A    between atoms: _363  and  _365
REMARK  155  A    between atoms: _365  and  _366
REMARK  156  A    between atoms: _365  and  _368
REMARK  157  A    between atoms: _368  and  _369
REMARK  158  A    between atoms: _369  and  _370
REMARK  159  A    between atoms: _373  and  _375
REMARK  160  A    between atoms: _375  and  _376
REMARK  161  A    between atoms: _375  and  _378
REMARK  162  A    between atoms: _378  and  _379
REMARK  163  A    between atoms: _384  and  _386
REMARK  164  A    between atoms: _386  and  _387
REMARK  165  A    between atoms: _386  and  _389
REMARK  166  A    between atoms: _389  and  _390
REMARK  167  A    between atoms: _396  and  _398
REMARK  168  A    between atoms: _398  and  _399
REMARK  169  A    between atoms: _398  and  _401
REMARK  170  A    between atoms: _401  and  _402
REMARK  171  A    between atoms: _407  and  _408
REMARK  172  A    between atoms: _410  and  _412
REMARK  173  A    between atoms: _412  and  _413
REMARK  174  A    between atoms: _412  and  _415
REMARK  175  A    between atoms: _415  and  _416
REMARK  176  A    between atoms: _421  and  _422
REMARK  177  A    between atoms: _424  and  _426
REMARK  178  A    between atoms: _426  and  _427
REMARK  179  A    between atoms: _426  and  _429
REMARK  180  A    between atoms: _430  and  _431
REMARK  181  A    between atoms: _431  and  _432
REMARK  182  A    between atoms: _441  and  _443
REMARK  183  A    between atoms: _443  and  _444
REMARK  184  A    between atoms: _443  and  _446
REMARK  185  A    between atoms: _446  and  _447
REMARK  186  A    between atoms: _447  and  _448
REMARK  187  A    between atoms: _450  and  _452
REMARK  188  A    between atoms: _452  and  _453
REMARK  189  A    between atoms: _452  and  _455
REMARK  190  A    between atoms: _455  and  _456
REMARK  191  A    between atoms: _456  and  _457
REMARK  192  A    between atoms: _462  and  _464
REMARK  193  A    between atoms: _464  and  _465
REMARK  194  A    between atoms: _464  and  _467
REMARK  195  A    between atoms: _467  and  _468
REMARK                            x       y       z     vdW  Elec       q    Type
REMARK                         _______ _______ _______ _____ _____    ______ ____
ROOT
ATOM      1  CA  GLU A   3       8.922  15.553  17.805  0.00  0.00    +0.149 C 
ENDROOT
BRANCH   1   4
ATOM      2  C   CYS A   2       9.215  17.616  19.080  0.00  0.00    +0.242 C 
ATOM      3  O   CYS A   2       8.351  17.211  19.836  0.00  0.00    -0.273 OA
ATOM      4  N   GLU A   3       9.572  16.906  18.036  0.00  0.00    -0.297 N 
ATOM      5  H   GLU A   3      10.291  17.265  17.375  0.00  0.00    +0.150 HD
BRANCH   2   6
ATOM      6  CA  CYS A   2       9.899  18.953  19.350  0.00  0.00    +0.160 C 
BRANCH   6   9
ATOM      7  C   GLN A   1      12.280  18.960  19.751  0.00  0.00    +0.238 C 
ATOM      8  O   GLN A   1      12.119  18.636  20.954  0.00  0.00    -0.274 OA
ATOM      9  N   CYS A   2      11.280  19.129  18.908  0.00  0.00    -0.297 N 
ATOM     10  H   CYS A   2      11.476  19.390  17.921  0.00  0.00    +0.150 HD
BRANCH   7  11
ATOM     11  CA  GLN A   1      13.650  19.285  19.187  0.00  0.00    +0.145 C 
BRANCH  11  12
ATOM     12  N   GLN A   1      13.984  20.573  19.732  0.00  0.00    -0.238 NA
ATOM     13  H   GLN A   1      13.699  20.768  20.713  0.00  0.00    +0.142 HD
ENDBRANCH  11  12
BRANCH  11  14
ATOM     14  CB  GLN A   1      14.662  18.199  19.528  0.00  0.00    +0.036 C 
BRANCH  14  15
ATOM     15  CG  GLN A   1      14.244  16.767  19.113  0.00  0.00    +0.087 C 
BRANCH  15  16
ATOM     16  CD  GLN A   1      13.796  16.756  17.676  0.00  0.00    +0.219 C 
ATOM     17  NE2 GLN A   1      12.640  16.127  17.396  0.00  0.00    -0.329 N 
ATOM     18 HE21 GLN A   1      12.103  15.663  18.156  0.00  0.00    +0.145 HD
ATOM     19 HE22 GLN A   1      12.283  16.105  16.419  0.00  0.00    +0.145 HD
ATOM     20  OE1 GLN A   1      14.477  17.327  16.805  0.00  0.00    -0.275 OA
ENDBRANCH  15  16
ENDBRANCH  14  15
ENDBRANCH  11  14
ENDBRANCH   7  11
ENDBRANCH   6   9
BRANCH   6  21
ATOM     21  CB  CYS A   2       8.986  20.112  18.916  0.00  0.00    +0.098 C 
ATOM     22  SG  CYS A   2       9.544  21.623  19.741  0.00  0.00    -0.080 S 
ENDBRANCH   6  21
ENDBRANCH   2   6
ENDBRANCH   1   4
BRANCH   1  23
ATOM     23  C   GLU A   3       9.404  14.478  18.819  0.00  0.00    +0.241 C 
ATOM     24  N   ALA A   4       8.496  13.692  19.387  0.00  0.00    -0.297 N 
ATOM     25  H   ALA A   4       8.841  12.939  20.017  0.00  0.00    +0.150 HD
ATOM     26  O   GLU A   3      10.622  14.355  19.102  0.00  0.00    -0.273 OA
BRANCH  24  27
ATOM     27  CA  ALA A   4       7.063  13.800  19.199  0.00  0.00    +0.149 C 
ATOM     28  CB  ALA A   4       6.455  12.444  19.181  0.00  0.00    +0.031 C 
BRANCH  27  29
ATOM     29  C   ALA A   4       6.395  14.678  20.243  0.00  0.00    +0.241 C 
ATOM     30  N   THR A   5       6.903  14.638  21.461  0.00  0.00    -0.295 N 
ATOM     31  H   THR A   5       7.765  14.080  21.627  0.00  0.00    +0.150 HD
ATOM     32  O   ALA A   4       5.470  15.409  19.916  0.00  0.00    -0.273 OA
BRANCH  30  33
ATOM     33  CA  THR A   5       6.301  15.345  22.578  0.00  0.00    +0.176 C 
BRANCH  33  34
ATOM     34  C   THR A   5       7.245  16.292  23.254  0.00  0.00    +0.243 C 
ATOM     35  O   THR A   5       7.169  16.472  24.500  0.00  0.00    -0.273 OA
ATOM     36  N   GLY A   6       8.135  16.951  22.484  0.00  0.00    -0.296 N 
ATOM     37  H   GLY A   6       8.215  16.732  21.470  0.00  0.00    +0.150 HD
BRANCH  36  38
ATOM     38  CA  GLY A   6       8.989  17.979  23.089  0.00  0.00    +0.163 C 
BRANCH  38  39
ATOM     39  C   GLY A   6       8.446  19.402  23.194  0.00  0.00    +0.229 C 
ATOM     40  O   GLY A   6       8.996  20.221  23.948  0.00  0.00    -0.286 OA
ENDBRANCH  38  39
ENDBRANCH  36  38
ENDBRANCH  33  34
BRANCH  33  41
ATOM     41  CB  THR A   5       5.723  14.331  23.624  0.00  0.00    +0.137 C 
ATOM     42  CG2 THR A   5       4.731  13.377  22.953  0.00  0.00    +0.034 C 
BRANCH  41  43
ATOM     43  OG1 THR A   5       6.786  13.558  24.166  0.00  0.00    -0.382 OA
ATOM     44  HG1 THR A   5       7.436  14.158  24.610  0.00  0.00    +0.210 HD
ENDBRANCH  41  43
ENDBRANCH  33  41
ENDBRANCH  30  33
ENDBRANCH  27  29
ENDBRANCH  24  27
ENDBRANCH   1  23
BRANCH   1  45
ATOM     45  CB  GLU A   3       9.239  15.054  16.376  0.00  0.00    +0.041 C 
BRANCH  45  46
ATOM     46  CG  GLU A   3       8.381  13.832  16.008  0.00  0.00    +0.116 C 
BRANCH  46  47
ATOM     47  CD  GLU A   3       8.510  13.410  14.524  0.00  0.00    +0.365 C 
ATOM     48  OE2 GLU A   3       7.828  12.472  14.117  0.00  0.00    -0.246 OA
ATOM     49  OE1 GLU A   3       9.294  13.987  13.747  0.00  0.00    -0.246 OA
ENDBRANCH  46  47
ENDBRANCH  45  46
ENDBRANCH   1  45
TORSDOF 21
REMARK  Name = ../refined-set-2016/4k5p/4k5p_pocket.pdb
REMARK  195 active torsions:
REMARK  status: ('A' for Active; 'I' for Inactive)
REMARK    1  A    between atoms: _1  and  _3
REMARK    2  A    between atoms: _3  and  _4
REMARK    3  A    between atoms: _3  and  _6
REMARK    4  A    between atoms: _6  and  _7
REMARK    5  A    between atoms: _10  and  _12
REMARK    6  A    between atoms: _12  and  _13
REMARK    7  A    between atoms: _12  and  _15
REMARK    8  A    between atoms: _15  and  _16
REMARK    9  A    between atoms: _19  and  _21
REMARK   10  A    between atoms: _21  and  _22
REMARK   11  A    between atoms: _21  and  _24
REMARK   12  A    between atoms: _24  and  _25
REMARK   13  A    between atoms: _25  and  _26
REMARK   14  A    between atoms: _31  and  _33
REMARK   15  A    between atoms: _33  and  _34
REMARK   16  A    between atoms: _33  and  _36
REMARK   17  A    between atoms: _38  and  _40
REMARK   18  A    between atoms: _40  and  _41
REMARK   19  A    between atoms: _40  and  _43
REMARK   20  A    between atoms: _43  and  _44
REMARK   21  A    between atoms: _44  and  _45
REMARK   22  A    between atoms: _48  and  _50
REMARK   23  A    between atoms: _50  and  _51
REMARK   24  A    between atoms: _54  and  _56
REMARK   25  A    between atoms: _56  and  _57
REMARK   26  A    between atoms: _56  and  _59
REMARK   27  A    between atoms: _59  and  _60
REMARK   28  A    between atoms: _63  and  _65
REMARK   29  A    between atoms: _65  and  _66
REMARK   30  A    between atoms: _68  and  _70
REMARK   31  A    between atoms: _70  and  _71
REMARK   32  A    between atoms: _70  and  _73
REMARK   33  A    between atoms: _73  and  _74
REMARK   34  A    between atoms: _79  and  _80
REMARK   35  A    between atoms: _82  and  _84
REMARK   36  A    between atoms: _84  and  _85
REMARK   37  A    between atoms: _84  and  _87
REMARK   38  A    between atoms: _87  and  _88
REMARK   39  A    between atoms: _91  and  _93
REMARK   40  A    between atoms: _93  and  _94
REMARK   41  A    between atoms: _93  and  _96
REMARK   42  A    between atoms: _96  and  _97
REMARK   43  A    between atoms: _103  and  _105
REMARK   44  A    between atoms: _105  and  _106
REMARK   45  A    between atoms: _105  and  _108
REMARK   46  A    between atoms: _108  and  _109
REMARK   47  A    between atoms: _114  and  _116
REMARK   48  A    between atoms: _116  and  _117
REMARK   49  A    between atoms: _116  and  _119
REMARK   50  A    between atoms: _122  and  _124
REMARK   51  A    between atoms: _124  and  _125
REMARK   52  A    between atoms: _127  and  _129
REMARK   53  A    between atoms: _129  and  _130
REMARK   54  A    between atoms: _133  and  _135
REMARK   55  A    between atoms: _135  and  _136
REMARK   56  A    between atoms: _135  and  _138
REMARK   57  A    between atoms: _138  and  _139
REMARK   58  A    between atoms: _139  and  _140
REMARK   59  A    between atoms: _142  and  _144
REMARK   60  A    between atoms: _144  and  _145
REMARK   61  A    between atoms: _144  and  _147
REMARK   62  A    between atoms: _147  and  _148
REMARK   63  A    between atoms: _148  and  _149
REMARK   64  A    between atoms: _152  and  _154
REMARK   65  A    between atoms: _154  and  _155
REMARK   66  A    between atoms: _154  and  _157
REMARK   67  A    between atoms: _157  and  _158
REMARK   68  A    between atoms: _163  and  _165
REMARK   69  A    between atoms: _165  and  _166
REMARK   70  A    between atoms: _165  and  _168
REMARK   71  A    between atoms: _168  and  _169
REMARK   72  A    between atoms: _172  and  _174
REMARK   73  A    between atoms: _174  and  _175
REMARK   74  A    between atoms: _174  and  _177
REMARK   75  A    between atoms: _177  and  _178
REMARK   76  A    between atoms: _183  and  _185
REMARK   77  A    between atoms: _185  and  _186
REMARK   78  A    between atoms: _185  and  _188
REMARK   79  A    between atoms: _188  and  _189
REMARK   80  A    between atoms: _189  and  _190
REMARK   81  A    between atoms: _190  and  _191
REMARK   82  A    between atoms: _200  and  _202
REMARK   83  A    between atoms: _202  and  _203
REMARK   84  A    between atoms: _202  and  _205
REMARK   85  A    between atoms: _208  and  _210
REMARK   86  A    between atoms: _210  and  _211
REMARK   87  A    between atoms: _210  and  _213
REMARK   88  A    between atoms: _213  and  _214
REMARK   89  A    between atoms: _218  and  ZN_473
REMARK   90  A    between atoms: _219  and  _221
REMARK   91  A    between atoms: _221  and  _222
REMARK   92  A    between atoms: _221  and  _224
REMARK   93  A    between atoms: _224  and  _225
REMARK   94  A    between atoms: _225  and  _226
REMARK   95  A    between atoms: _229  and  _231
REMARK   96  A    between atoms: _231  and  _232
REMARK   97  A    between atoms: _231  and  _234
REMARK   98  A    between atoms: _234  and  _235
REMARK   99  A    between atoms: _240  and  _241
REMARK  100  A    between atoms: _243  and  _245
REMARK  101  A    between atoms: _245  and  _246
REMARK  102  A    between atoms: _245  and  _248
REMARK  103  A    between atoms: _248  and  _249
REMARK  104  A    between atoms: _253  and  ZN_473
REMARK  105  A    between atoms: _254  and  _256
REMARK  106  A    between atoms: _256  and  _257
REMARK  107  A    between atoms: _256  and  _259
REMARK  108  A    between atoms: _259  and  _260
REMARK  109  A    between atoms: _263  and  _265
REMARK  110  A    between atoms: _265  and  _266
REMARK  111  A    between atoms: _265  and  _268
REMARK  112  A    between atoms: _268  and  _269
REMARK  113  A    between atoms: _274  and  _276
REMARK  114  A    between atoms: _276  and  _277
REMARK  115  A    between atoms: _276  and  _279
REMARK  116  A    between atoms: _279  and  _280
REMARK  117  A    between atoms: _290  and  _292
REMARK  118  A    between atoms: _292  and  _293
REMARK  119  A    between atoms: _292  and  _295
REMARK  120  A    between atoms: _295  and  _296
REMARK  121  A    between atoms: _299  and  _301
REMARK  122  A    between atoms: _301  and  _302
REMARK  123  A    between atoms: _301  and  _304
REMARK  124  A    between atoms: _304  and  _305
REMARK  125  A    between atoms: _305  and  _306
REMARK  126  A    between atoms: _306  and  _307
REMARK  127  A    between atoms: _307  and  _308
REMARK  128  A    between atoms: _312  and  _314
REMARK  129  A    between atoms: _314  and  _315
REMARK  130  A    between atoms: _314  and  _317
REMARK  131  A    between atoms: _317  and  _318
REMARK  132  A    between atoms: _318  and  _319
REMARK  133  A    between atoms: _319  and  _320
REMARK  134  A    between atoms: _320  and  ZN_473
REMARK  135  A    between atoms: _322  and  _324
REMARK  136  A    between atoms: _324  and  _325
REMARK  137  A    between atoms: _327  and  _329
REMARK  138  A    between atoms: _329  and  _330
REMARK  139  A    between atoms: _329  and  _332
REMARK  140  A    between atoms: _332  and  _333
REMARK  141  A    between atoms: _336  and  _338
REMARK  142  A    between atoms: _338  and  _339
REMARK  143  A    between atoms: _338  and  _341
REMARK  144  A    between atoms: _344  and  _346
REMARK  145  A    between atoms: _346  and  _347
REMARK  146  A    between atoms: _346  and  _349
REMARK  147  A    between atoms: _349  and  _350
REMARK  148  A    between atoms: _350  and  _351
REMARK  149  A    between atoms: _354  and  _356
REMARK  150  A    between atoms: _356  and  _357
REMARK  151  A    between atoms: _356  and  _359
REMARK  152  A    between atoms: _359  and  _360
REMARK  153  A    between atoms: _360  and  _361
REMARK  154  A    between atoms: _363  and  _365
REMARK  155  A    between atoms: _365  and  _366
REMARK  156  A    between atoms: _365  and  _368
REMARK  157  A    between atoms: _368  and  _369
REMARK  158  A    between atoms: _369  and  _370
REMARK  159  A    between atoms: _373  and  _375
REMARK  160  A    between atoms: _375  and  _376
REMARK  161  A    between atoms: _375  and  _378
REMARK  162  A    between atoms: _378  and  _379
REMARK  163  A    between atoms: _384  and  _386
REMARK  164  A    between atoms: _386  and  _387
REMARK  165  A    between atoms: _386  and  _389
REMARK  166  A    between atoms: _389  and  _390
REMARK  167  A    between atoms: _396  and  _398
REMARK  168  A    between atoms: _398  and  _399
REMARK  169  A    between atoms: _398  and  _401
REMARK  170  A    between atoms: _401  and  _402
REMARK  171  A    between atoms: _407  and  _408
REMARK  172  A    between atoms: _410  and  _412
REMARK  173  A    between atoms: _412  and  _413
REMARK  174  A    between atoms: _412  and  _415
REMARK  175  A    between atoms: _415  and  _416
REMARK  176  A    between atoms: _421  and  _422
REMARK  177  A    between atoms: _424  and  _426
REMARK  178  A    between atoms: _426  and  _427
REMARK  179  A    between atoms: _426  and  _429
REMARK  180  A    between atoms: _430  and  _431
REMARK  181  A    between atoms: _431  and  _432
REMARK  182  A    between atoms: _441  and  _443
REMARK  183  A    between atoms: _443  and  _444
REMARK  184  A    between atoms: _443  and  _446
REMARK  185  A    between atoms: _446  and  _447
REMARK  186  A    between atoms: _447  and  _448
REMARK  187  A    between atoms: _450  and  _452
REMARK  188  A    between atoms: _452  and  _453
REMARK  189  A    between atoms: _452  and  _455
REMARK  190  A    between atoms: _455  and  _456
REMARK  191  A    between atoms: _456  and  _457
REMARK  192  A    between atoms: _462  and  _464
REMARK  193  A    between atoms: _464  and  _465
REMARK  194  A    between atoms: _464  and  _467
REMARK  195  A    between atoms: _467  and  _468
REMARK                            x       y       z     vdW  Elec       q    Type
REMARK                         _______ _______ _______ _____ _____    ______ ____
ROOT
ATOM      1  CA  TYR A   1       5.962  19.124  16.614  0.00  0.00    +0.149 C 
ENDROOT
BRANCH   1   2
ATOM      2  C   TYR A   1       6.866  19.627  15.505  0.00  0.00    +0.239 C 
ATOM      3  O   TYR A   1       8.051  19.371  15.548  0.00  0.00    -0.274 OA
ATOM      4  N   LEU A   2       6.328  20.447  14.617  0.00  0.00    -0.298 N 
ATOM      5  H   LEU A   2       5.316  20.670  14.704  0.00  0.00    +0.150 HD
BRANCH   4   6
ATOM      6  CA  LEU A   2       7.087  21.065  13.505  0.00  0.00    +0.137 C 
BRANCH   6   7
ATOM      7  C   LEU A   2       7.595  22.494  13.781  0.00  0.00    +0.227 C 
ATOM      8  O   LEU A   2       8.224  23.080  12.917  0.00  0.00    -0.286 OA
ENDBRANCH   6   7
BRANCH   6   9
ATOM      9  CB  LEU A   2       6.266  21.039  12.234  0.00  0.00    +0.028 C 
BRANCH   9  10
ATOM     10  CG  LEU A   2       6.079  19.564  11.736  0.00  0.00    +0.002 C 
ATOM     11  CD2 LEU A   2       7.450  18.897  11.388  0.00  0.00    +0.000 C 
ATOM     12  CD1 LEU A   2       5.195  19.717  10.532  0.00  0.00    +0.000 C 
ENDBRANCH   9  10
ENDBRANCH   6   9
ENDBRANCH   4   6
ENDBRANCH   1   2
BRANCH   1  13
ATOM     13  N   TYR A   1       4.698  19.847  16.644  0.00  0.00    -0.238 NA
ATOM     14  H   TYR A   1       3.805  19.399  16.355  0.00  0.00    +0.142 HD
ENDBRANCH   1  13
BRANCH   1  15
ATOM     15  CB  TYR A   1       5.835  17.594  16.597  0.00  0.00    +0.053 C 
BRANCH  15  16
ATOM     16  CG  TYR A   1       5.474  17.054  15.236  0.00  0.00    -0.020 A 
ATOM     17  CD2 TYR A   1       4.142  16.931  14.852  0.00  0.00    -0.001 A 
ATOM     18  CE2 TYR A   1       3.806  16.434  13.638  0.00  0.00    +0.036 A 
ATOM     19  CZ  TYR A   1       4.833  16.104  12.755  0.00  0.00    +0.134 A 
ATOM     20  CE1 TYR A   1       6.140  16.258  13.070  0.00  0.00    +0.036 A 
ATOM     21  CD1 TYR A   1       6.475  16.717  14.318  0.00  0.00    -0.001 A 
BRANCH  19  22
ATOM     22  OH  TYR A   1       4.492  15.619  11.537  0.00  0.00    -0.506 OA
ATOM     23  HH  TYR A   1       3.506  15.569  11.467  0.00  0.00    +0.292 HD
ENDBRANCH  19  22
ENDBRANCH  15  16
ENDBRANCH   1  15
TORSDOF 9
REMARK  Name = ../refined-set-2016/4k5p/4k5p_pocket.pdb
REMARK  195 active torsions:
REMARK  status: ('A' for Active; 'I' for Inactive)
REMARK    1  A    between atoms: _1  and  _3
REMARK    2  A    between atoms: _3  and  _4
REMARK    3  A    between atoms: _3  and  _6
REMARK    4  A    between atoms: _6  and  _7
REMARK    5  A    between atoms: _10  and  _12
REMARK    6  A    between atoms: _12  and  _13
REMARK    7  A    between atoms: _12  and  _15
REMARK    8  A    between atoms: _15  and  _16
REMARK    9  A    between atoms: _19  and  _21
REMARK   10  A    between atoms: _21  and  _22
REMARK   11  A    between atoms: _21  and  _24
REMARK   12  A    between atoms: _24  and  _25
REMARK   13  A    between atoms: _25  and  _26
REMARK   14  A    between atoms: _31  and  _33
REMARK   15  A    between atoms: _33  and  _34
REMARK   16  A    between atoms: _33  and  _36
REMARK   17  A    between atoms: _38  and  _40
REMARK   18  A    between atoms: _40  and  _41
REMARK   19  A    between atoms: _40  and  _43
REMARK   20  A    between atoms: _43  and  _44
REMARK   21  A    between atoms: _44  and  _45
REMARK   22  A    between atoms: _48  and  _50
REMARK   23  A    between atoms: _50  and  _51
REMARK   24  A    between atoms: _54  and  _56
REMARK   25  A    between atoms: _56  and  _57
REMARK   26  A    between atoms: _56  and  _59
REMARK   27  A    between atoms: _59  and  _60
REMARK   28  A    between atoms: _63  and  _65
REMARK   29  A    between atoms: _65  and  _66
REMARK   30  A    between atoms: _68  and  _70
REMARK   31  A    between atoms: _70  and  _71
REMARK   32  A    between atoms: _70  and  _73
REMARK   33  A    between atoms: _73  and  _74
REMARK   34  A    between atoms: _79  and  _80
REMARK   35  A    between atoms: _82  and  _84
REMARK   36  A    between atoms: _84  and  _85
REMARK   37  A    between atoms: _84  and  _87
REMARK   38  A    between atoms: _87  and  _88
REMARK   39  A    between atoms: _91  and  _93
REMARK   40  A    between atoms: _93  and  _94
REMARK   41  A    between atoms: _93  and  _96
REMARK   42  A    between atoms: _96  and  _97
REMARK   43  A    between atoms: _103  and  _105
REMARK   44  A    between atoms: _105  and  _106
REMARK   45  A    between atoms: _105  and  _108
REMARK   46  A    between atoms: _108  and  _109
REMARK   47  A    between atoms: _114  and  _116
REMARK   48  A    between atoms: _116  and  _117
REMARK   49  A    between atoms: _116  and  _119
REMARK   50  A    between atoms: _122  and  _124
REMARK   51  A    between atoms: _124  and  _125
REMARK   52  A    between atoms: _127  and  _129
REMARK   53  A    between atoms: _129  and  _130
REMARK   54  A    between atoms: _133  and  _135
REMARK   55  A    between atoms: _135  and  _136
REMARK   56  A    between atoms: _135  and  _138
REMARK   57  A    between atoms: _138  and  _139
REMARK   58  A    between atoms: _139  and  _140
REMARK   59  A    between atoms: _142  and  _144
REMARK   60  A    between atoms: _144  and  _145
REMARK   61  A    between atoms: _144  and  _147
REMARK   62  A    between atoms: _147  and  _148
REMARK   63  A    between atoms: _148  and  _149
REMARK   64  A    between atoms: _152  and  _154
REMARK   65  A    between atoms: _154  and  _155
REMARK   66  A    between atoms: _154  and  _157
REMARK   67  A    between atoms: _157  and  _158
REMARK   68  A    between atoms: _163  and  _165
REMARK   69  A    between atoms: _165  and  _166
REMARK   70  A    between atoms: _165  and  _168
REMARK   71  A    between atoms: _168  and  _169
REMARK   72  A    between atoms: _172  and  _174
REMARK   73  A    between atoms: _174  and  _175
REMARK   74  A    between atoms: _174  and  _177
REMARK   75  A    between atoms: _177  and  _178
REMARK   76  A    between atoms: _183  and  _185
REMARK   77  A    between atoms: _185  and  _186
REMARK   78  A    between atoms: _185  and  _188
REMARK   79  A    between atoms: _188  and  _189
REMARK   80  A    between atoms: _189  and  _190
REMARK   81  A    between atoms: _190  and  _191
REMARK   82  A    between atoms: _200  and  _202
REMARK   83  A    between atoms: _202  and  _203
REMARK   84  A    between atoms: _202  and  _205
REMARK   85  A    between atoms: _208  and  _210
REMARK   86  A    between atoms: _210  and  _211
REMARK   87  A    between atoms: _210  and  _213
REMARK   88  A    between atoms: _213  and  _214
REMARK   89  A    between atoms: _218  and  ZN_473
REMARK   90  A    between atoms: _219  and  _221
REMARK   91  A    between atoms: _221  and  _222
REMARK   92  A    between atoms: _221  and  _224
REMARK   93  A    between atoms: _224  and  _225
REMARK   94  A    between atoms: _225  and  _226
REMARK   95  A    between atoms: _229  and  _231
REMARK   96  A    between atoms: _231  and  _232
REMARK   97  A    between atoms: _231  and  _234
REMARK   98  A    between atoms: _234  and  _235
REMARK   99  A    between atoms: _240  and  _241
REMARK  100  A    between atoms: _243  and  _245
REMARK  101  A    between atoms: _245  and  _246
REMARK  102  A    between atoms: _245  and  _248
REMARK  103  A    between atoms: _248  and  _249
REMARK  104  A    between atoms: _253  and  ZN_473
REMARK  105  A    between atoms: _254  and  _256
REMARK  106  A    between atoms: _256  and  _257
REMARK  107  A    between atoms: _256  and  _259
REMARK  108  A    between atoms: _259  and  _260
REMARK  109  A    between atoms: _263  and  _265
REMARK  110  A    between atoms: _265  and  _266
REMARK  111  A    between atoms: _265  and  _268
REMARK  112  A    between atoms: _268  and  _269
REMARK  113  A    between atoms: _274  and  _276
REMARK  114  A    between atoms: _276  and  _277
REMARK  115  A    between atoms: _276  and  _279
REMARK  116  A    between atoms: _279  and  _280
REMARK  117  A    between atoms: _290  and  _292
REMARK  118  A    between atoms: _292  and  _293
REMARK  119  A    between atoms: _292  and  _295
REMARK  120  A    between atoms: _295  and  _296
REMARK  121  A    between atoms: _299  and  _301
REMARK  122  A    between atoms: _301  and  _302
REMARK  123  A    between atoms: _301  and  _304
REMARK  124  A    between atoms: _304  and  _305
REMARK  125  A    between atoms: _305  and  _306
REMARK  126  A    between atoms: _306  and  _307
REMARK  127  A    between atoms: _307  and  _308
REMARK  128  A    between atoms: _312  and  _314
REMARK  129  A    between atoms: _314  and  _315
REMARK  130  A    between atoms: _314  and  _317
REMARK  131  A    between atoms: _317  and  _318
REMARK  132  A    between atoms: _318  and  _319
REMARK  133  A    between atoms: _319  and  _320
REMARK  134  A    between atoms: _320  and  ZN_473
REMARK  135  A    between atoms: _322  and  _324
REMARK  136  A    between atoms: _324  and  _325
REMARK  137  A    between atoms: _327  and  _329
REMARK  138  A    between atoms: _329  and  _330
REMARK  139  A    between atoms: _329  and  _332
REMARK  140  A    between atoms: _332  and  _333
REMARK  141  A    between atoms: _336  and  _338
REMARK  142  A    between atoms: _338  and  _339
REMARK  143  A    between atoms: _338  and  _341
REMARK  144  A    between atoms: _344  and  _346
REMARK  145  A    between atoms: _346  and  _347
REMARK  146  A    between atoms: _346  and  _349
REMARK  147  A    between atoms: _349  and  _350
REMARK  148  A    between atoms: _350  and  _351
REMARK  149  A    between atoms: _354  and  _356
REMARK  150  A    between atoms: _356  and  _357
REMARK  151  A    between atoms: _356  and  _359
REMARK  152  A    between atoms: _359  and  _360
REMARK  153  A    between atoms: _360  and  _361
REMARK  154  A    between atoms: _363  and  _365
REMARK  155  A    between atoms: _365  and  _366
REMARK  156  A    between atoms: _365  and  _368
REMARK  157  A    between atoms: _368  and  _369
REMARK  158  A    between atoms: _369  and  _370
REMARK  159  A    between atoms: _373  and  _375
REMARK  160  A    between atoms: _375  and  _376
REMARK  161  A    between atoms: _375  and  _378
REMARK  162  A    between atoms: _378  and  _379
REMARK  163  A    between atoms: _384  and  _386
REMARK  164  A    between atoms: _386  and  _387
REMARK  165  A    between atoms: _386  and  _389
REMARK  166  A    between atoms: _389  and  _390
REMARK  167  A    between atoms: _396  and  _398
REMARK  168  A    between atoms: _398  and  _399
REMARK  169  A    between atoms: _398  and  _401
REMARK  170  A    between atoms: _401  and  _402
REMARK  171  A    between atoms: _407  and  _408
REMARK  172  A    between atoms: _410  and  _412
REMARK  173  A    between atoms: _412  and  _413
REMARK  174  A    between atoms: _412  and  _415
REMARK  175  A    between atoms: _415  and  _416
REMARK  176  A    between atoms: _421  and  _422
REMARK  177  A    between atoms: _424  and  _426
REMARK  178  A    between atoms: _426  and  _427
REMARK  179  A    between atoms: _426  and  _429
REMARK  180  A    between atoms: _430  and  _431
REMARK  181  A    between atoms: _431  and  _432
REMARK  182  A    between atoms: _441  and  _443
REMARK  183  A    between atoms: _443  and  _444
REMARK  184  A    between atoms: _443  and  _446
REMARK  185  A    between atoms: _446  and  _447
REMARK  186  A    between atoms: _447  and  _448
REMARK  187  A    between atoms: _450  and  _452
REMARK  188  A    between atoms: _452  and  _453
REMARK  189  A    between atoms: _452  and  _455
REMARK  190  A    between atoms: _455  and  _456
REMARK  191  A    between atoms: _456  and  _457
REMARK  192  A    between atoms: _462  and  _464
REMARK  193  A    between atoms: _464  and  _465
REMARK  194  A    between atoms: _464  and  _467
REMARK  195  A    between atoms: _467  and  _468
REMARK                            x       y       z     vdW  Elec       q    Type
REMARK                         _______ _______ _______ _____ _____    ______ ____
ROOT
ATOM      1  C   GLY A   4      19.516  13.122  12.306  0.00  0.00    +0.243 C 
ATOM      2  N   ALA A   5      18.225  13.425  12.272  0.00  0.00    -0.297 N 
ATOM      3  H   ALA A   5      17.514  12.691  12.465  0.00  0.00    +0.150 HD
ATOM      4  O   GLY A   4      20.372  13.966  12.074  0.00  0.00    -0.273 OA
ENDROOT
BRANCH   2   5
ATOM      5  CA  ALA A   5      17.794  14.811  11.959  0.00  0.00    +0.149 C 
ATOM      6  CB  ALA A   5      18.121  15.205  10.529  0.00  0.00    +0.031 C 
BRANCH   5   7
ATOM      7  C   ALA A   5      16.320  14.910  12.194  0.00  0.00    +0.241 C 
ATOM      8  O   ALA A   5      15.713  13.925  12.655  0.00  0.00    -0.273 OA
ATOM      9  N   MET A   6      15.750  16.062  11.828  0.00  0.00    -0.297 N 
ATOM     10  H   MET A   6      16.319  16.757  11.303  0.00  0.00    +0.150 HD
BRANCH   9  11
ATOM     11  CA  MET A   6      14.341  16.387  12.141  0.00  0.00    +0.149 C 
BRANCH  11  12
ATOM     12  C   MET A   6      13.868  17.350  11.121  0.00  0.00    +0.241 C 
ATOM     13  O   MET A   6      14.559  18.358  10.824  0.00  0.00    -0.273 OA
ATOM     14  N   GLU A   7      12.714  17.061  10.567  0.00  0.00    -0.297 N 
ATOM     15  H   GLU A   7      12.269  16.149  10.795  0.00  0.00    +0.150 HD
BRANCH  14  16
ATOM     16  CA  GLU A   7      12.034  17.950   9.657  0.00  0.00    +0.149 C 
BRANCH  16  17
ATOM     17  C   GLU A   7      11.239  18.868  10.599  0.00  0.00    +0.241 C 
ATOM     18  O   GLU A   7      10.744  18.423  11.695  0.00  0.00    -0.273 OA
ATOM     19  N   ASN A   8      11.381  20.153  10.356  0.00  0.00    -0.298 N 
ATOM     20  H   ASN A   8      12.097  20.440   9.658  0.00  0.00    +0.150 HD
BRANCH  19  21
ATOM     21  CA  ASN A   8      10.587  21.216  11.012  0.00  0.00    +0.146 C 
BRANCH  21  22
ATOM     22  C   ASN A   8      10.492  22.045   9.808  0.00  0.00    +0.227 C 
ATOM     23  O   ASN A   8      11.526  22.256   9.170  0.00  0.00    -0.286 OA
ENDBRANCH  21  22
BRANCH  21  24
ATOM     24  CB  ASN A   8      11.381  22.050  11.995  0.00  0.00    +0.112 C 
BRANCH  24  25
ATOM     25  CG  ASN A   8      12.054  21.210  13.026  0.00  0.00    +0.222 C 
ATOM     26  ND2 ASN A   8      11.265  20.666  13.965  0.00  0.00    -0.329 N 
ATOM     27 HD21 ASN A   8      11.684  20.108  14.736  0.00  0.00    +0.145 HD
ATOM     28 HD22 ASN A   8      10.235  20.802  13.921  0.00  0.00    +0.145 HD
ATOM     29  OD1 ASN A   8      13.268  21.085  13.024  0.00  0.00    -0.275 OA
ENDBRANCH  24  25
ENDBRANCH  21  24
ENDBRANCH  19  21
ENDBRANCH  16  17
BRANCH  16  30
ATOM     30  CB  GLU A   7      11.171  17.194   8.643  0.00  0.00    +0.041 C 
BRANCH  30  31
ATOM     31  CG  GLU A   7       9.756  16.776   9.184  0.00  0.00    +0.116 C 
BRANCH  31  32
ATOM     32  CD  GLU A   7       9.764  15.567  10.104  0.00  0.00    +0.365 C 
ATOM     33  OE2 GLU A   7      10.831  15.215  10.632  0.00  0.00    -0.246 OA
ATOM     34  OE1 GLU A   7       8.679  14.932  10.232  0.00  0.00    -0.246 OA
ENDBRANCH  31  32
ENDBRANCH  30  31
ENDBRANCH  16  30
ENDBRANCH  14  16
ENDBRANCH  11  12
BRANCH  11  35
ATOM     35  CB  MET A   6      14.238  17.098  13.493  0.00  0.00    +0.041 C 
BRANCH  35  36
ATOM     36  CG  MET A   6      12.838  17.658  13.727  0.00  0.00    +0.060 C 
BRANCH  36  37
ATOM     37  SD  MET A   6      11.685  16.249  13.854  0.00  0.00    -0.139 S 
ATOM     38  CE  MET A   6      10.063  16.901  13.349  0.00  0.00    +0.069 C 
ENDBRANCH  36  37
ENDBRANCH  35  36
ENDBRANCH  11  35
ENDBRANCH   9  11
ENDBRANCH   5   7
ENDBRANCH   2   5
BRANCH   1  39
ATOM     39  CA  GLY A   4      19.918  11.657  12.568  0.00  0.00    +0.176 C 
BRANCH  39  42
ATOM     40  C   VAL A   3      19.631  11.358  14.985  0.00  0.00    +0.241 C 
ATOM     41  O   VAL A   3      20.610  12.031  15.228  0.00  0.00    -0.273 OA
ATOM     42  N   GLY A   4      19.250  11.078  13.740  0.00  0.00    -0.295 N 
ATOM     43  H   GLY A   4      18.452  10.427  13.593  0.00  0.00    +0.150 HD
BRANCH  40  44
ATOM     44  CA  VAL A   3      18.886  10.677  16.132  0.00  0.00    +0.149 C 
BRANCH  44  47
ATOM     45  C   ASN A   2      19.318  11.056  18.484  0.00  0.00    +0.241 C 
ATOM     46  O   ASN A   2      19.644   9.874  18.616  0.00  0.00    -0.273 OA
ATOM     47  N   VAL A   3      18.954  11.575  17.306  0.00  0.00    -0.297 N 
ATOM     48  H   VAL A   3      18.724  12.585  17.217  0.00  0.00    +0.150 HD
BRANCH  45  49
ATOM     49  CA  ASN A   2      19.348  12.006  19.676  0.00  0.00    +0.158 C 
BRANCH  49  51
ATOM     50  C   PHE A   1      20.935  13.757  19.007  0.00  0.00    +0.239 C 
ATOM     51  N   ASN A   2      19.667  13.399  19.301  0.00  0.00    -0.297 N 
ATOM     52  H   ASN A   2      18.909  14.110  19.263  0.00  0.00    +0.150 HD
ATOM     53  O   PHE A   1      21.808  12.927  18.849  0.00  0.00    -0.274 OA
BRANCH  50  54
ATOM     54  CA  PHE A   1      21.277  15.246  18.801  0.00  0.00    +0.149 C 
BRANCH  54  55
ATOM     55  N   PHE A   1      22.649  15.516  19.358  0.00  0.00    -0.238 NA
ATOM     56  H   PHE A   1      23.358  14.756  19.390  0.00  0.00    +0.142 HD
ENDBRANCH  54  55
BRANCH  54  57
ATOM     57  CB  PHE A   1      21.298  15.582  17.288  0.00  0.00    +0.053 C 
BRANCH  57  58
ATOM     58  CG  PHE A   1      19.932  15.946  16.726  0.00  0.00    -0.020 A 
ATOM     59  CD2 PHE A   1      19.310  17.177  17.044  0.00  0.00    -0.004 A 
ATOM     60  CE2 PHE A   1      18.003  17.504  16.528  0.00  0.00    -0.000 A 
ATOM     61  CZ  PHE A   1      17.359  16.609  15.673  0.00  0.00    -0.000 A 
ATOM     62  CE1 PHE A   1      17.963  15.369  15.393  0.00  0.00    -0.000 A 
ATOM     63  CD1 PHE A   1      19.256  15.054  15.892  0.00  0.00    -0.004 A 
ENDBRANCH  57  58
ENDBRANCH  54  57
ENDBRANCH  50  54
ENDBRANCH  49  51
BRANCH  49  64
ATOM     64  CB  ASN A   2      18.034  11.924  20.456  0.00  0.00    +0.114 C 
BRANCH  64  65
ATOM     65  CG  ASN A   2      18.175  12.506  21.785  0.00  0.00    +0.222 C 
ATOM     66  OD1 ASN A   2      19.301  12.553  22.341  0.00  0.00    -0.275 OA
ATOM     67  ND2 ASN A   2      17.073  12.934  22.338  0.00  0.00    -0.329 N 
ATOM     68 HD21 ASN A   2      17.096  13.343  23.294  0.00  0.00    +0.145 HD
ATOM     69 HD22 ASN A   2      16.172  12.866  21.823  0.00  0.00    +0.145 HD
ENDBRANCH  64  65
ENDBRANCH  49  64
ENDBRANCH  45  49
ENDBRANCH  44  47
BRANCH  44  70
ATOM     70  CB  VAL A   3      17.411  10.419  15.786  0.00  0.00    +0.027 C 
ATOM     71  CG2 VAL A   3      16.742   9.605  16.891  0.00  0.00    +0.002 C 
ATOM     72  CG1 VAL A   3      16.615  11.790  15.498  0.00  0.00    +0.002 C 
ENDBRANCH  44  70
ENDBRANCH  40  44
ENDBRANCH  39  42
ENDBRANCH   1  39
TORSDOF 29
REMARK  Name = ../refined-set-2016/4k5p/4k5p_pocket.pdb
REMARK  195 active torsions:
REMARK  status: ('A' for Active; 'I' for Inactive)
REMARK    1  A    between atoms: _1  and  _3
REMARK    2  A    between atoms: _3  and  _4
REMARK    3  A    between atoms: _3  and  _6
REMARK    4  A    between atoms: _6  and  _7
REMARK    5  A    between atoms: _10  and  _12
REMARK    6  A    between atoms: _12  and  _13
REMARK    7  A    between atoms: _12  and  _15
REMARK    8  A    between atoms: _15  and  _16
REMARK    9  A    between atoms: _19  and  _21
REMARK   10  A    between atoms: _21  and  _22
REMARK   11  A    between atoms: _21  and  _24
REMARK   12  A    between atoms: _24  and  _25
REMARK   13  A    between atoms: _25  and  _26
REMARK   14  A    between atoms: _31  and  _33
REMARK   15  A    between atoms: _33  and  _34
REMARK   16  A    between atoms: _33  and  _36
REMARK   17  A    between atoms: _38  and  _40
REMARK   18  A    between atoms: _40  and  _41
REMARK   19  A    between atoms: _40  and  _43
REMARK   20  A    between atoms: _43  and  _44
REMARK   21  A    between atoms: _44  and  _45
REMARK   22  A    between atoms: _48  and  _50
REMARK   23  A    between atoms: _50  and  _51
REMARK   24  A    between atoms: _54  and  _56
REMARK   25  A    between atoms: _56  and  _57
REMARK   26  A    between atoms: _56  and  _59
REMARK   27  A    between atoms: _59  and  _60
REMARK   28  A    between atoms: _63  and  _65
REMARK   29  A    between atoms: _65  and  _66
REMARK   30  A    between atoms: _68  and  _70
REMARK   31  A    between atoms: _70  and  _71
REMARK   32  A    between atoms: _70  and  _73
REMARK   33  A    between atoms: _73  and  _74
REMARK   34  A    between atoms: _79  and  _80
REMARK   35  A    between atoms: _82  and  _84
REMARK   36  A    between atoms: _84  and  _85
REMARK   37  A    between atoms: _84  and  _87
REMARK   38  A    between atoms: _87  and  _88
REMARK   39  A    between atoms: _91  and  _93
REMARK   40  A    between atoms: _93  and  _94
REMARK   41  A    between atoms: _93  and  _96
REMARK   42  A    between atoms: _96  and  _97
REMARK   43  A    between atoms: _103  and  _105
REMARK   44  A    between atoms: _105  and  _106
REMARK   45  A    between atoms: _105  and  _108
REMARK   46  A    between atoms: _108  and  _109
REMARK   47  A    between atoms: _114  and  _116
REMARK   48  A    between atoms: _116  and  _117
REMARK   49  A    between atoms: _116  and  _119
REMARK   50  A    between atoms: _122  and  _124
REMARK   51  A    between atoms: _124  and  _125
REMARK   52  A    between atoms: _127  and  _129
REMARK   53  A    between atoms: _129  and  _130
REMARK   54  A    between atoms: _133  and  _135
REMARK   55  A    between atoms: _135  and  _136
REMARK   56  A    between atoms: _135  and  _138
REMARK   57  A    between atoms: _138  and  _139
REMARK   58  A    between atoms: _139  and  _140
REMARK   59  A    between atoms: _142  and  _144
REMARK   60  A    between atoms: _144  and  _145
REMARK   61  A    between atoms: _144  and  _147
REMARK   62  A    between atoms: _147  and  _148
REMARK   63  A    between atoms: _148  and  _149
REMARK   64  A    between atoms: _152  and  _154
REMARK   65  A    between atoms: _154  and  _155
REMARK   66  A    between atoms: _154  and  _157
REMARK   67  A    between atoms: _157  and  _158
REMARK   68  A    between atoms: _163  and  _165
REMARK   69  A    between atoms: _165  and  _166
REMARK   70  A    between atoms: _165  and  _168
REMARK   71  A    between atoms: _168  and  _169
REMARK   72  A    between atoms: _172  and  _174
REMARK   73  A    between atoms: _174  and  _175
REMARK   74  A    between atoms: _174  and  _177
REMARK   75  A    between atoms: _177  and  _178
REMARK   76  A    between atoms: _183  and  _185
REMARK   77  A    between atoms: _185  and  _186
REMARK   78  A    between atoms: _185  and  _188
REMARK   79  A    between atoms: _188  and  _189
REMARK   80  A    between atoms: _189  and  _190
REMARK   81  A    between atoms: _190  and  _191
REMARK   82  A    between atoms: _200  and  _202
REMARK   83  A    between atoms: _202  and  _203
REMARK   84  A    between atoms: _202  and  _205
REMARK   85  A    between atoms: _208  and  _210
REMARK   86  A    between atoms: _210  and  _211
REMARK   87  A    between atoms: _210  and  _213
REMARK   88  A    between atoms: _213  and  _214
REMARK   89  A    between atoms: _218  and  ZN_473
REMARK   90  A    between atoms: _219  and  _221
REMARK   91  A    between atoms: _221  and  _222
REMARK   92  A    between atoms: _221  and  _224
REMARK   93  A    between atoms: _224  and  _225
REMARK   94  A    between atoms: _225  and  _226
REMARK   95  A    between atoms: _229  and  _231
REMARK   96  A    between atoms: _231  and  _232
REMARK   97  A    between atoms: _231  and  _234
REMARK   98  A    between atoms: _234  and  _235
REMARK   99  A    between atoms: _240  and  _241
REMARK  100  A    between atoms: _243  and  _245
REMARK  101  A    between atoms: _245  and  _246
REMARK  102  A    between atoms: _245  and  _248
REMARK  103  A    between atoms: _248  and  _249
REMARK  104  A    between atoms: _253  and  ZN_473
REMARK  105  A    between atoms: _254  and  _256
REMARK  106  A    between atoms: _256  and  _257
REMARK  107  A    between atoms: _256  and  _259
REMARK  108  A    between atoms: _259  and  _260
REMARK  109  A    between atoms: _263  and  _265
REMARK  110  A    between atoms: _265  and  _266
REMARK  111  A    between atoms: _265  and  _268
REMARK  112  A    between atoms: _268  and  _269
REMARK  113  A    between atoms: _274  and  _276
REMARK  114  A    between atoms: _276  and  _277
REMARK  115  A    between atoms: _276  and  _279
REMARK  116  A    between atoms: _279  and  _280
REMARK  117  A    between atoms: _290  and  _292
REMARK  118  A    between atoms: _292  and  _293
REMARK  119  A    between atoms: _292  and  _295
REMARK  120  A    between atoms: _295  and  _296
REMARK  121  A    between atoms: _299  and  _301
REMARK  122  A    between atoms: _301  and  _302
REMARK  123  A    between atoms: _301  and  _304
REMARK  124  A    between atoms: _304  and  _305
REMARK  125  A    between atoms: _305  and  _306
REMARK  126  A    between atoms: _306  and  _307
REMARK  127  A    between atoms: _307  and  _308
REMARK  128  A    between atoms: _312  and  _314
REMARK  129  A    between atoms: _314  and  _315
REMARK  130  A    between atoms: _314  and  _317
REMARK  131  A    between atoms: _317  and  _318
REMARK  132  A    between atoms: _318  and  _319
REMARK  133  A    between atoms: _319  and  _320
REMARK  134  A    between atoms: _320  and  ZN_473
REMARK  135  A    between atoms: _322  and  _324
REMARK  136  A    between atoms: _324  and  _325
REMARK  137  A    between atoms: _327  and  _329
REMARK  138  A    between atoms: _329  and  _330
REMARK  139  A    between atoms: _329  and  _332
REMARK  140  A    between atoms: _332  and  _333
REMARK  141  A    between atoms: _336  and  _338
REMARK  142  A    between atoms: _338  and  _339
REMARK  143  A    between atoms: _338  and  _341
REMARK  144  A    between atoms: _344  and  _346
REMARK  145  A    between atoms: _346  and  _347
REMARK  146  A    between atoms: _346  and  _349
REMARK  147  A    between atoms: _349  and  _350
REMARK  148  A    between atoms: _350  and  _351
REMARK  149  A    between atoms: _354  and  _356
REMARK  150  A    between atoms: _356  and  _357
REMARK  151  A    between atoms: _356  and  _359
REMARK  152  A    between atoms: _359  and  _360
REMARK  153  A    between atoms: _360  and  _361
REMARK  154  A    between atoms: _363  and  _365
REMARK  155  A    between atoms: _365  and  _366
REMARK  156  A    between atoms: _365  and  _368
REMARK  157  A    between atoms: _368  and  _369
REMARK  158  A    between atoms: _369  and  _370
REMARK  159  A    between atoms: _373  and  _375
REMARK  160  A    between atoms: _375  and  _376
REMARK  161  A    between atoms: _375  and  _378
REMARK  162  A    between atoms: _378  and  _379
REMARK  163  A    between atoms: _384  and  _386
REMARK  164  A    between atoms: _386  and  _387
REMARK  165  A    between atoms: _386  and  _389
REMARK  166  A    between atoms: _389  and  _390
REMARK  167  A    between atoms: _396  and  _398
REMARK  168  A    between atoms: _398  and  _399
REMARK  169  A    between atoms: _398  and  _401
REMARK  170  A    between atoms: _401  and  _402
REMARK  171  A    between atoms: _407  and  _408
REMARK  172  A    between atoms: _410  and  _412
REMARK  173  A    between atoms: _412  and  _413
REMARK  174  A    between atoms: _412  and  _415
REMARK  175  A    between atoms: _415  and  _416
REMARK  176  A    between atoms: _421  and  _422
REMARK  177  A    between atoms: _424  and  _426
REMARK  178  A    between atoms: _426  and  _427
REMARK  179  A    between atoms: _426  and  _429
REMARK  180  A    between atoms: _430  and  _431
REMARK  181  A    between atoms: _431  and  _432
REMARK  182  A    between atoms: _441  and  _443
REMARK  183  A    between atoms: _443  and  _444
REMARK  184  A    between atoms: _443  and  _446
REMARK  185  A    between atoms: _446  and  _447
REMARK  186  A    between atoms: _447  and  _448
REMARK  187  A    between atoms: _450  and  _452
REMARK  188  A    between atoms: _452  and  _453
REMARK  189  A    between atoms: _452  and  _455
REMARK  190  A    between atoms: _455  and  _456
REMARK  191  A    between atoms: _456  and  _457
REMARK  192  A    between atoms: _462  and  _464
REMARK  193  A    between atoms: _464  and  _465
REMARK  194  A    between atoms: _464  and  _467
REMARK  195  A    between atoms: _467  and  _468
REMARK                            x       y       z     vdW  Elec       q    Type
REMARK                         _______ _______ _______ _____ _____    ______ ____
ROOT
ATOM      1  CA  ILE A   1      17.961  20.435  12.106  0.00  0.00    +0.133 C 
ENDROOT
BRANCH   1   2
ATOM      2  N   ILE A   1      16.802  20.433  11.186  0.00  0.00    -0.239 NA
ATOM      3  H   ILE A   1      15.962  19.863  11.412  0.00  0.00    +0.142 HD
ENDBRANCH   1   2
BRANCH   1   4
ATOM      4  CB  ILE A   1      17.430  20.780  13.586  0.00  0.00    +0.023 C 
ATOM      5  CG2 ILE A   1      18.542  20.654  14.708  0.00  0.00    +0.002 C 
BRANCH   4   6
ATOM      6  CG1 ILE A   1      16.871  22.258  13.564  0.00  0.00    +0.002 C 
ATOM      7  CD1 ILE A   1      16.050  22.741  14.840  0.00  0.00    +0.000 C 
ENDBRANCH   4   6
ENDBRANCH   1   4
BRANCH   1   8
ATOM      8  C   ILE A   1      18.571  19.031  12.118  0.00  0.00    +0.224 C 
ATOM      9  O   ILE A   1      17.840  18.049  12.133  0.00  0.00    -0.287 OA
ENDBRANCH   1   8
TORSDOF 4
REMARK  Name = ../refined-set-2016/4k5p/4k5p_pocket.pdb
REMARK  195 active torsions:
REMARK  status: ('A' for Active; 'I' for Inactive)
REMARK    1  A    between atoms: _1  and  _3
REMARK    2  A    between atoms: _3  and  _4
REMARK    3  A    between atoms: _3  and  _6
REMARK    4  A    between atoms: _6  and  _7
REMARK    5  A    between atoms: _10  and  _12
REMARK    6  A    between atoms: _12  and  _13
REMARK    7  A    between atoms: _12  and  _15
REMARK    8  A    between atoms: _15  and  _16
REMARK    9  A    between atoms: _19  and  _21
REMARK   10  A    between atoms: _21  and  _22
REMARK   11  A    between atoms: _21  and  _24
REMARK   12  A    between atoms: _24  and  _25
REMARK   13  A    between atoms: _25  and  _26
REMARK   14  A    between atoms: _31  and  _33
REMARK   15  A    between atoms: _33  and  _34
REMARK   16  A    between atoms: _33  and  _36
REMARK   17  A    between atoms: _38  and  _40
REMARK   18  A    between atoms: _40  and  _41
REMARK   19  A    between atoms: _40  and  _43
REMARK   20  A    between atoms: _43  and  _44
REMARK   21  A    between atoms: _44  and  _45
REMARK   22  A    between atoms: _48  and  _50
REMARK   23  A    between atoms: _50  and  _51
REMARK   24  A    between atoms: _54  and  _56
REMARK   25  A    between atoms: _56  and  _57
REMARK   26  A    between atoms: _56  and  _59
REMARK   27  A    between atoms: _59  and  _60
REMARK   28  A    between atoms: _63  and  _65
REMARK   29  A    between atoms: _65  and  _66
REMARK   30  A    between atoms: _68  and  _70
REMARK   31  A    between atoms: _70  and  _71
REMARK   32  A    between atoms: _70  and  _73
REMARK   33  A    between atoms: _73  and  _74
REMARK   34  A    between atoms: _79  and  _80
REMARK   35  A    between atoms: _82  and  _84
REMARK   36  A    between atoms: _84  and  _85
REMARK   37  A    between atoms: _84  and  _87
REMARK   38  A    between atoms: _87  and  _88
REMARK   39  A    between atoms: _91  and  _93
REMARK   40  A    between atoms: _93  and  _94
REMARK   41  A    between atoms: _93  and  _96
REMARK   42  A    between atoms: _96  and  _97
REMARK   43  A    between atoms: _103  and  _105
REMARK   44  A    between atoms: _105  and  _106
REMARK   45  A    between atoms: _105  and  _108
REMARK   46  A    between atoms: _108  and  _109
REMARK   47  A    between atoms: _114  and  _116
REMARK   48  A    between atoms: _116  and  _117
REMARK   49  A    between atoms: _116  and  _119
REMARK   50  A    between atoms: _122  and  _124
REMARK   51  A    between atoms: _124  and  _125
REMARK   52  A    between atoms: _127  and  _129
REMARK   53  A    between atoms: _129  and  _130
REMARK   54  A    between atoms: _133  and  _135
REMARK   55  A    between atoms: _135  and  _136
REMARK   56  A    between atoms: _135  and  _138
REMARK   57  A    between atoms: _138  and  _139
REMARK   58  A    between atoms: _139  and  _140
REMARK   59  A    between atoms: _142  and  _144
REMARK   60  A    between atoms: _144  and  _145
REMARK   61  A    between atoms: _144  and  _147
REMARK   62  A    between atoms: _147  and  _148
REMARK   63  A    between atoms: _148  and  _149
REMARK   64  A    between atoms: _152  and  _154
REMARK   65  A    between atoms: _154  and  _155
REMARK   66  A    between atoms: _154  and  _157
REMARK   67  A    between atoms: _157  and  _158
REMARK   68  A    between atoms: _163  and  _165
REMARK   69  A    between atoms: _165  and  _166
REMARK   70  A    between atoms: _165  and  _168
REMARK   71  A    between atoms: _168  and  _169
REMARK   72  A    between atoms: _172  and  _174
REMARK   73  A    between atoms: _174  and  _175
REMARK   74  A    between atoms: _174  and  _177
REMARK   75  A    between atoms: _177  and  _178
REMARK   76  A    between atoms: _183  and  _185
REMARK   77  A    between atoms: _185  and  _186
REMARK   78  A    between atoms: _185  and  _188
REMARK   79  A    between atoms: _188  and  _189
REMARK   80  A    between atoms: _189  and  _190
REMARK   81  A    between atoms: _190  and  _191
REMARK   82  A    between atoms: _200  and  _202
REMARK   83  A    between atoms: _202  and  _203
REMARK   84  A    between atoms: _202  and  _205
REMARK   85  A    between atoms: _208  and  _210
REMARK   86  A    between atoms: _210  and  _211
REMARK   87  A    between atoms: _210  and  _213
REMARK   88  A    between atoms: _213  and  _214
REMARK   89  A    between atoms: _218  and  ZN_473
REMARK   90  A    between atoms: _219  and  _221
REMARK   91  A    between atoms: _221  and  _222
REMARK   92  A    between atoms: _221  and  _224
REMARK   93  A    between atoms: _224  and  _225
REMARK   94  A    between atoms: _225  and  _226
REMARK   95  A    between atoms: _229  and  _231
REMARK   96  A    between atoms: _231  and  _232
REMARK   97  A    between atoms: _231  and  _234
REMARK   98  A    between atoms: _234  and  _235
REMARK   99  A    between atoms: _240  and  _241
REMARK  100  A    between atoms: _243  and  _245
REMARK  101  A    between atoms: _245  and  _246
REMARK  102  A    between atoms: _245  and  _248
REMARK  103  A    between atoms: _248  and  _249
REMARK  104  A    between atoms: _253  and  ZN_473
REMARK  105  A    between atoms: _254  and  _256
REMARK  106  A    between atoms: _256  and  _257
REMARK  107  A    between atoms: _256  and  _259
REMARK  108  A    between atoms: _259  and  _260
REMARK  109  A    between atoms: _263  and  _265
REMARK  110  A    between atoms: _265  and  _266
REMARK  111  A    between atoms: _265  and  _268
REMARK  112  A    between atoms: _268  and  _269
REMARK  113  A    between atoms: _274  and  _276
REMARK  114  A    between atoms: _276  and  _277
REMARK  115  A    between atoms: _276  and  _279
REMARK  116  A    between atoms: _279  and  _280
REMARK  117  A    between atoms: _290  and  _292
REMARK  118  A    between atoms: _292  and  _293
REMARK  119  A    between atoms: _292  and  _295
REMARK  120  A    between atoms: _295  and  _296
REMARK  121  A    between atoms: _299  and  _301
REMARK  122  A    between atoms: _301  and  _302
REMARK  123  A    between atoms: _301  and  _304
REMARK  124  A    between atoms: _304  and  _305
REMARK  125  A    between atoms: _305  and  _306
REMARK  126  A    between atoms: _306  and  _307
REMARK  127  A    between atoms: _307  and  _308
REMARK  128  A    between atoms: _312  and  _314
REMARK  129  A    between atoms: _314  and  _315
REMARK  130  A    between atoms: _314  and  _317
REMARK  131  A    between atoms: _317  and  _318
REMARK  132  A    between atoms: _318  and  _319
REMARK  133  A    between atoms: _319  and  _320
REMARK  134  A    between atoms: _320  and  ZN_473
REMARK  135  A    between atoms: _322  and  _324
REMARK  136  A    between atoms: _324  and  _325
REMARK  137  A    between atoms: _327  and  _329
REMARK  138  A    between atoms: _329  and  _330
REMARK  139  A    between atoms: _329  and  _332
REMARK  140  A    between atoms: _332  and  _333
REMARK  141  A    between atoms: _336  and  _338
REMARK  142  A    between atoms: _338  and  _339
REMARK  143  A    between atoms: _338  and  _341
REMARK  144  A    between atoms: _344  and  _346
REMARK  145  A    between atoms: _346  and  _347
REMARK  146  A    between atoms: _346  and  _349
REMARK  147  A    between atoms: _349  and  _350
REMARK  148  A    between atoms: _350  and  _351
REMARK  149  A    between atoms: _354  and  _356
REMARK  150  A    between atoms: _356  and  _357
REMARK  151  A    between atoms: _356  and  _359
REMARK  152  A    between atoms: _359  and  _360
REMARK  153  A    between atoms: _360  and  _361
REMARK  154  A    between atoms: _363  and  _365
REMARK  155  A    between atoms: _365  and  _366
REMARK  156  A    between atoms: _365  and  _368
REMARK  157  A    between atoms: _368  and  _369
REMARK  158  A    between atoms: _369  and  _370
REMARK  159  A    between atoms: _373  and  _375
REMARK  160  A    between atoms: _375  and  _376
REMARK  161  A    between atoms: _375  and  _378
REMARK  162  A    between atoms: _378  and  _379
REMARK  163  A    between atoms: _384  and  _386
REMARK  164  A    between atoms: _386  and  _387
REMARK  165  A    between atoms: _386  and  _389
REMARK  166  A    between atoms: _389  and  _390
REMARK  167  A    between atoms: _396  and  _398
REMARK  168  A    between atoms: _398  and  _399
REMARK  169  A    between atoms: _398  and  _401
REMARK  170  A    between atoms: _401  and  _402
REMARK  171  A    between atoms: _407  and  _408
REMARK  172  A    between atoms: _410  and  _412
REMARK  173  A    between atoms: _412  and  _413
REMARK  174  A    between atoms: _412  and  _415
REMARK  175  A    between atoms: _415  and  _416
REMARK  176  A    between atoms: _421  and  _422
REMARK  177  A    between atoms: _424  and  _426
REMARK  178  A    between atoms: _426  and  _427
REMARK  179  A    between atoms: _426  and  _429
REMARK  180  A    between atoms: _430  and  _431
REMARK  181  A    between atoms: _431  and  _432
REMARK  182  A    between atoms: _441  and  _443
REMARK  183  A    between atoms: _443  and  _444
REMARK  184  A    between atoms: _443  and  _446
REMARK  185  A    between atoms: _446  and  _447
REMARK  186  A    between atoms: _447  and  _448
REMARK  187  A    between atoms: _450  and  _452
REMARK  188  A    between atoms: _452  and  _453
REMARK  189  A    between atoms: _452  and  _455
REMARK  190  A    between atoms: _455  and  _456
REMARK  191  A    between atoms: _456  and  _457
REMARK  192  A    between atoms: _462  and  _464
REMARK  193  A    between atoms: _464  and  _465
REMARK  194  A    between atoms: _464  and  _467
REMARK  195  A    between atoms: _467  and  _468
REMARK                            x       y       z     vdW  Elec       q    Type
REMARK                         _______ _______ _______ _____ _____    ______ ____
ROOT
ATOM      1  CB  ASN A   1      22.879  14.136  14.107  0.00  0.00    +0.110 C 
ENDROOT
BRANCH   1   2
ATOM      2  CG  ASN A   1      24.022  13.564  14.913  0.00  0.00    +0.221 C 
ATOM      3  ND2 ASN A   1      23.702  12.518  15.692  0.00  0.00    -0.329 N 
ATOM      4 HD21 ASN A   1      24.434  12.055  16.267  0.00  0.00    +0.145 HD
ATOM      5 HD22 ASN A   1      22.722  12.171  15.720  0.00  0.00    +0.145 HD
ATOM      6  OD1 ASN A   1      25.172  14.010  14.848  0.00  0.00    -0.275 OA
ENDBRANCH   1   2
BRANCH   1   7
ATOM      7  CA  ASN A   1      22.954  15.669  13.934  0.00  0.00    +0.142 C 
BRANCH   7   8
ATOM      8  N   ASN A   1      21.749  16.121  13.271  0.00  0.00    -0.239 NA
ATOM      9  H   ASN A   1      20.993  15.441  13.051  0.00  0.00    +0.142 HD
ENDBRANCH   7   8
BRANCH   7  10
ATOM     10  C   ASN A   1      24.129  16.062  12.998  0.00  0.00    +0.225 C 
ATOM     11  O   ASN A   1      24.037  15.837  11.788  0.00  0.00    -0.287 OA
ENDBRANCH   7  10
ENDBRANCH   1   7
TORSDOF 4
REMARK  Name = ../refined-set-2016/4k5p/4k5p_pocket.pdb
REMARK  195 active torsions:
REMARK  status: ('A' for Active; 'I' for Inactive)
REMARK    1  A    between atoms: _1  and  _3
REMARK    2  A    between atoms: _3  and  _4
REMARK    3  A    between atoms: _3  and  _6
REMARK    4  A    between atoms: _6  and  _7
REMARK    5  A    between atoms: _10  and  _12
REMARK    6  A    between atoms: _12  and  _13
REMARK    7  A    between atoms: _12  and  _15
REMARK    8  A    between atoms: _15  and  _16
REMARK    9  A    between atoms: _19  and  _21
REMARK   10  A    between atoms: _21  and  _22
REMARK   11  A    between atoms: _21  and  _24
REMARK   12  A    between atoms: _24  and  _25
REMARK   13  A    between atoms: _25  and  _26
REMARK   14  A    between atoms: _31  and  _33
REMARK   15  A    between atoms: _33  and  _34
REMARK   16  A    between atoms: _33  and  _36
REMARK   17  A    between atoms: _38  and  _40
REMARK   18  A    between atoms: _40  and  _41
REMARK   19  A    between atoms: _40  and  _43
REMARK   20  A    between atoms: _43  and  _44
REMARK   21  A    between atoms: _44  and  _45
REMARK   22  A    between atoms: _48  and  _50
REMARK   23  A    between atoms: _50  and  _51
REMARK   24  A    between atoms: _54  and  _56
REMARK   25  A    between atoms: _56  and  _57
REMARK   26  A    between atoms: _56  and  _59
REMARK   27  A    between atoms: _59  and  _60
REMARK   28  A    between atoms: _63  and  _65
REMARK   29  A    between atoms: _65  and  _66
REMARK   30  A    between atoms: _68  and  _70
REMARK   31  A    between atoms: _70  and  _71
REMARK   32  A    between atoms: _70  and  _73
REMARK   33  A    between atoms: _73  and  _74
REMARK   34  A    between atoms: _79  and  _80
REMARK   35  A    between atoms: _82  and  _84
REMARK   36  A    between atoms: _84  and  _85
REMARK   37  A    between atoms: _84  and  _87
REMARK   38  A    between atoms: _87  and  _88
REMARK   39  A    between atoms: _91  and  _93
REMARK   40  A    between atoms: _93  and  _94
REMARK   41  A    between atoms: _93  and  _96
REMARK   42  A    between atoms: _96  and  _97
REMARK   43  A    between atoms: _103  and  _105
REMARK   44  A    between atoms: _105  and  _106
REMARK   45  A    between atoms: _105  and  _108
REMARK   46  A    between atoms: _108  and  _109
REMARK   47  A    between atoms: _114  and  _116
REMARK   48  A    between atoms: _116  and  _117
REMARK   49  A    between atoms: _116  and  _119
REMARK   50  A    between atoms: _122  and  _124
REMARK   51  A    between atoms: _124  and  _125
REMARK   52  A    between atoms: _127  and  _129
REMARK   53  A    between atoms: _129  and  _130
REMARK   54  A    between atoms: _133  and  _135
REMARK   55  A    between atoms: _135  and  _136
REMARK   56  A    between atoms: _135  and  _138
REMARK   57  A    between atoms: _138  and  _139
REMARK   58  A    between atoms: _139  and  _140
REMARK   59  A    between atoms: _142  and  _144
REMARK   60  A    between atoms: _144  and  _145
REMARK   61  A    between atoms: _144  and  _147
REMARK   62  A    between atoms: _147  and  _148
REMARK   63  A    between atoms: _148  and  _149
REMARK   64  A    between atoms: _152  and  _154
REMARK   65  A    between atoms: _154  and  _155
REMARK   66  A    between atoms: _154  and  _157
REMARK   67  A    between atoms: _157  and  _158
REMARK   68  A    between atoms: _163  and  _165
REMARK   69  A    between atoms: _165  and  _166
REMARK   70  A    between atoms: _165  and  _168
REMARK   71  A    between atoms: _168  and  _169
REMARK   72  A    between atoms: _172  and  _174
REMARK   73  A    between atoms: _174  and  _175
REMARK   74  A    between atoms: _174  and  _177
REMARK   75  A    between atoms: _177  and  _178
REMARK   76  A    between atoms: _183  and  _185
REMARK   77  A    between atoms: _185  and  _186
REMARK   78  A    between atoms: _185  and  _188
REMARK   79  A    between atoms: _188  and  _189
REMARK   80  A    between atoms: _189  and  _190
REMARK   81  A    between atoms: _190  and  _191
REMARK   82  A    between atoms: _200  and  _202
REMARK   83  A    between atoms: _202  and  _203
REMARK   84  A    between atoms: _202  and  _205
REMARK   85  A    between atoms: _208  and  _210
REMARK   86  A    between atoms: _210  and  _211
REMARK   87  A    between atoms: _210  and  _213
REMARK   88  A    between atoms: _213  and  _214
REMARK   89  A    between atoms: _218  and  ZN_473
REMARK   90  A    between atoms: _219  and  _221
REMARK   91  A    between atoms: _221  and  _222
REMARK   92  A    between atoms: _221  and  _224
REMARK   93  A    between atoms: _224  and  _225
REMARK   94  A    between atoms: _225  and  _226
REMARK   95  A    between atoms: _229  and  _231
REMARK   96  A    between atoms: _231  and  _232
REMARK   97  A    between atoms: _231  and  _234
REMARK   98  A    between atoms: _234  and  _235
REMARK   99  A    between atoms: _240  and  _241
REMARK  100  A    between atoms: _243  and  _245
REMARK  101  A    between atoms: _245  and  _246
REMARK  102  A    between atoms: _245  and  _248
REMARK  103  A    between atoms: _248  and  _249
REMARK  104  A    between atoms: _253  and  ZN_473
REMARK  105  A    between atoms: _254  and  _256
REMARK  106  A    between atoms: _256  and  _257
REMARK  107  A    between atoms: _256  and  _259
REMARK  108  A    between atoms: _259  and  _260
REMARK  109  A    between atoms: _263  and  _265
REMARK  110  A    between atoms: _265  and  _266
REMARK  111  A    between atoms: _265  and  _268
REMARK  112  A    between atoms: _268  and  _269
REMARK  113  A    between atoms: _274  and  _276
REMARK  114  A    between atoms: _276  and  _277
REMARK  115  A    between atoms: _276  and  _279
REMARK  116  A    between atoms: _279  and  _280
REMARK  117  A    between atoms: _290  and  _292
REMARK  118  A    between atoms: _292  and  _293
REMARK  119  A    between atoms: _292  and  _295
REMARK  120  A    between atoms: _295  and  _296
REMARK  121  A    between atoms: _299  and  _301
REMARK  122  A    between atoms: _301  and  _302
REMARK  123  A    between atoms: _301  and  _304
REMARK  124  A    between atoms: _304  and  _305
REMARK  125  A    between atoms: _305  and  _306
REMARK  126  A    between atoms: _306  and  _307
REMARK  127  A    between atoms: _307  and  _308
REMARK  128  A    between atoms: _312  and  _314
REMARK  129  A    between atoms: _314  and  _315
REMARK  130  A    between atoms: _314  and  _317
REMARK  131  A    between atoms: _317  and  _318
REMARK  132  A    between atoms: _318  and  _319
REMARK  133  A    between atoms: _319  and  _320
REMARK  134  A    between atoms: _320  and  ZN_473
REMARK  135  A    between atoms: _322  and  _324
REMARK  136  A    between atoms: _324  and  _325
REMARK  137  A    between atoms: _327  and  _329
REMARK  138  A    between atoms: _329  and  _330
REMARK  139  A    between atoms: _329  and  _332
REMARK  140  A    between atoms: _332  and  _333
REMARK  141  A    between atoms: _336  and  _338
REMARK  142  A    between atoms: _338  and  _339
REMARK  143  A    between atoms: _338  and  _341
REMARK  144  A    between atoms: _344  and  _346
REMARK  145  A    between atoms: _346  and  _347
REMARK  146  A    between atoms: _346  and  _349
REMARK  147  A    between atoms: _349  and  _350
REMARK  148  A    between atoms: _350  and  _351
REMARK  149  A    between atoms: _354  and  _356
REMARK  150  A    between atoms: _356  and  _357
REMARK  151  A    between atoms: _356  and  _359
REMARK  152  A    between atoms: _359  and  _360
REMARK  153  A    between atoms: _360  and  _361
REMARK  154  A    between atoms: _363  and  _365
REMARK  155  A    between atoms: _365  and  _366
REMARK  156  A    between atoms: _365  and  _368
REMARK  157  A    between atoms: _368  and  _369
REMARK  158  A    between atoms: _369  and  _370
REMARK  159  A    between atoms: _373  and  _375
REMARK  160  A    between atoms: _375  and  _376
REMARK  161  A    between atoms: _375  and  _378
REMARK  162  A    between atoms: _378  and  _379
REMARK  163  A    between atoms: _384  and  _386
REMARK  164  A    between atoms: _386  and  _387
REMARK  165  A    between atoms: _386  and  _389
REMARK  166  A    between atoms: _389  and  _390
REMARK  167  A    between atoms: _396  and  _398
REMARK  168  A    between atoms: _398  and  _399
REMARK  169  A    between atoms: _398  and  _401
REMARK  170  A    between atoms: _401  and  _402
REMARK  171  A    between atoms: _407  and  _408
REMARK  172  A    between atoms: _410  and  _412
REMARK  173  A    between atoms: _412  and  _413
REMARK  174  A    between atoms: _412  and  _415
REMARK  175  A    between atoms: _415  and  _416
REMARK  176  A    between atoms: _421  and  _422
REMARK  177  A    between atoms: _424  and  _426
REMARK  178  A    between atoms: _426  and  _427
REMARK  179  A    between atoms: _426  and  _429
REMARK  180  A    between atoms: _430  and  _431
REMARK  181  A    between atoms: _431  and  _432
REMARK  182  A    between atoms: _441  and  _443
REMARK  183  A    between atoms: _443  and  _444
REMARK  184  A    between atoms: _443  and  _446
REMARK  185  A    between atoms: _446  and  _447
REMARK  186  A    between atoms: _447  and  _448
REMARK  187  A    between atoms: _450  and  _452
REMARK  188  A    between atoms: _452  and  _453
REMARK  189  A    between atoms: _452  and  _455
REMARK  190  A    between atoms: _455  and  _456
REMARK  191  A    between atoms: _456  and  _457
REMARK  192  A    between atoms: _462  and  _464
REMARK  193  A    between atoms: _464  and  _465
REMARK  194  A    between atoms: _464  and  _467
REMARK  195  A    between atoms: _467  and  _468
REMARK                            x       y       z     vdW  Elec       q    Type
REMARK                         _______ _______ _______ _____ _____    ______ ____
ROOT
ATOM      1  NE  ARG A   1      23.049   8.998   9.187  0.00  0.00    -0.265 N 
ATOM      2  HE  ARG A   1      23.530   9.762   9.704  0.00  0.00    +0.259 HD
ATOM      3  CZ  ARG A   1      21.914   8.533   9.687  0.00  0.00    +0.342 C 
ATOM      4  NH2 ARG A   1      21.423   9.039  10.807  0.00  0.00    -0.292 N 
ATOM      5 HH21 ARG A   1      21.929   9.804  11.297  0.00  0.00    +0.255 HD
ATOM      6 HH22 ARG A   1      20.532   8.671  11.197  0.00  0.00    +0.255 HD
ATOM      7  NH1 ARG A   1      21.275   7.550   9.049  0.00  0.00    -0.292 N 
ATOM      8 HH11 ARG A   1      20.383   7.176   9.431  0.00  0.00    +0.255 HD
ATOM      9 HH12 ARG A   1      21.669   7.158   8.170  0.00  0.00    +0.255 HD
ENDROOT
BRANCH   1  10
ATOM     10  CD  ARG A   1      23.679   8.503   7.941  0.00  0.00    +0.174 C 
BRANCH  10  11
ATOM     11  CG  ARG A   1      24.787   9.464   7.534  0.00  0.00    +0.045 C 
BRANCH  11  12
ATOM     12  CB  ARG A   1      25.492   8.981   6.298  0.00  0.00    +0.029 C 
BRANCH  12  13
ATOM     13  CA  ARG A   1      24.646   9.107   5.014  0.00  0.00    +0.133 C 
BRANCH  13  14
ATOM     14  N   ARG A   1      25.488   8.774   3.855  0.00  0.00    -0.239 NA
ATOM     15  H   ARG A   1      26.496   8.553   3.984  0.00  0.00    +0.142 HD
ENDBRANCH  13  14
BRANCH  13  16
ATOM     16  C   ARG A   1      24.019  10.525   4.887  0.00  0.00    +0.224 C 
ATOM     17  O   ARG A   1      22.858  10.727   5.183  0.00  0.00    -0.287 OA
ENDBRANCH  13  16
ENDBRANCH  12  13
ENDBRANCH  11  12
ENDBRANCH  10  11
ENDBRANCH   1  10
TORSDOF 6
REMARK  Name = ../refined-set-2016/4k5p/4k5p_pocket.pdb
REMARK  195 active torsions:
REMARK  status: ('A' for Active; 'I' for Inactive)
REMARK    1  A    between atoms: _1  and  _3
REMARK    2  A    between atoms: _3  and  _4
REMARK    3  A    between atoms: _3  and  _6
REMARK    4  A    between atoms: _6  and  _7
REMARK    5  A    between atoms: _10  and  _12
REMARK    6  A    between atoms: _12  and  _13
REMARK    7  A    between atoms: _12  and  _15
REMARK    8  A    between atoms: _15  and  _16
REMARK    9  A    between atoms: _19  and  _21
REMARK   10  A    between atoms: _21  and  _22
REMARK   11  A    between atoms: _21  and  _24
REMARK   12  A    between atoms: _24  and  _25
REMARK   13  A    between atoms: _25  and  _26
REMARK   14  A    between atoms: _31  and  _33
REMARK   15  A    between atoms: _33  and  _34
REMARK   16  A    between atoms: _33  and  _36
REMARK   17  A    between atoms: _38  and  _40
REMARK   18  A    between atoms: _40  and  _41
REMARK   19  A    between atoms: _40  and  _43
REMARK   20  A    between atoms: _43  and  _44
REMARK   21  A    between atoms: _44  and  _45
REMARK   22  A    between atoms: _48  and  _50
REMARK   23  A    between atoms: _50  and  _51
REMARK   24  A    between atoms: _54  and  _56
REMARK   25  A    between atoms: _56  and  _57
REMARK   26  A    between atoms: _56  and  _59
REMARK   27  A    between atoms: _59  and  _60
REMARK   28  A    between atoms: _63  and  _65
REMARK   29  A    between atoms: _65  and  _66
REMARK   30  A    between atoms: _68  and  _70
REMARK   31  A    between atoms: _70  and  _71
REMARK   32  A    between atoms: _70  and  _73
REMARK   33  A    between atoms: _73  and  _74
REMARK   34  A    between atoms: _79  and  _80
REMARK   35  A    between atoms: _82  and  _84
REMARK   36  A    between atoms: _84  and  _85
REMARK   37  A    between atoms: _84  and  _87
REMARK   38  A    between atoms: _87  and  _88
REMARK   39  A    between atoms: _91  and  _93
REMARK   40  A    between atoms: _93  and  _94
REMARK   41  A    between atoms: _93  and  _96
REMARK   42  A    between atoms: _96  and  _97
REMARK   43  A    between atoms: _103  and  _105
REMARK   44  A    between atoms: _105  and  _106
REMARK   45  A    between atoms: _105  and  _108
REMARK   46  A    between atoms: _108  and  _109
REMARK   47  A    between atoms: _114  and  _116
REMARK   48  A    between atoms: _116  and  _117
REMARK   49  A    between atoms: _116  and  _119
REMARK   50  A    between atoms: _122  and  _124
REMARK   51  A    between atoms: _124  and  _125
REMARK   52  A    between atoms: _127  and  _129
REMARK   53  A    between atoms: _129  and  _130
REMARK   54  A    between atoms: _133  and  _135
REMARK   55  A    between atoms: _135  and  _136
REMARK   56  A    between atoms: _135  and  _138
REMARK   57  A    between atoms: _138  and  _139
REMARK   58  A    between atoms: _139  and  _140
REMARK   59  A    between atoms: _142  and  _144
REMARK   60  A    between atoms: _144  and  _145
REMARK   61  A    between atoms: _144  and  _147
REMARK   62  A    between atoms: _147  and  _148
REMARK   63  A    between atoms: _148  and  _149
REMARK   64  A    between atoms: _152  and  _154
REMARK   65  A    between atoms: _154  and  _155
REMARK   66  A    between atoms: _154  and  _157
REMARK   67  A    between atoms: _157  and  _158
REMARK   68  A    between atoms: _163  and  _165
REMARK   69  A    between atoms: _165  and  _166
REMARK   70  A    between atoms: _165  and  _168
REMARK   71  A    between atoms: _168  and  _169
REMARK   72  A    between atoms: _172  and  _174
REMARK   73  A    between atoms: _174  and  _175
REMARK   74  A    between atoms: _174  and  _177
REMARK   75  A    between atoms: _177  and  _178
REMARK   76  A    between atoms: _183  and  _185
REMARK   77  A    between atoms: _185  and  _186
REMARK   78  A    between atoms: _185  and  _188
REMARK   79  A    between atoms: _188  and  _189
REMARK   80  A    between atoms: _189  and  _190
REMARK   81  A    between atoms: _190  and  _191
REMARK   82  A    between atoms: _200  and  _202
REMARK   83  A    between atoms: _202  and  _203
REMARK   84  A    between atoms: _202  and  _205
REMARK   85  A    between atoms: _208  and  _210
REMARK   86  A    between atoms: _210  and  _211
REMARK   87  A    between atoms: _210  and  _213
REMARK   88  A    between atoms: _213  and  _214
REMARK   89  A    between atoms: _218  and  ZN_473
REMARK   90  A    between atoms: _219  and  _221
REMARK   91  A    between atoms: _221  and  _222
REMARK   92  A    between atoms: _221  and  _224
REMARK   93  A    between atoms: _224  and  _225
REMARK   94  A    between atoms: _225  and  _226
REMARK   95  A    between atoms: _229  and  _231
REMARK   96  A    between atoms: _231  and  _232
REMARK   97  A    between atoms: _231  and  _234
REMARK   98  A    between atoms: _234  and  _235
REMARK   99  A    between atoms: _240  and  _241
REMARK  100  A    between atoms: _243  and  _245
REMARK  101  A    between atoms: _245  and  _246
REMARK  102  A    between atoms: _245  and  _248
REMARK  103  A    between atoms: _248  and  _249
REMARK  104  A    between atoms: _253  and  ZN_473
REMARK  105  A    between atoms: _254  and  _256
REMARK  106  A    between atoms: _256  and  _257
REMARK  107  A    between atoms: _256  and  _259
REMARK  108  A    between atoms: _259  and  _260
REMARK  109  A    between atoms: _263  and  _265
REMARK  110  A    between atoms: _265  and  _266
REMARK  111  A    between atoms: _265  and  _268
REMARK  112  A    between atoms: _268  and  _269
REMARK  113  A    between atoms: _274  and  _276
REMARK  114  A    between atoms: _276  and  _277
REMARK  115  A    between atoms: _276  and  _279
REMARK  116  A    between atoms: _279  and  _280
REMARK  117  A    between atoms: _290  and  _292
REMARK  118  A    between atoms: _292  and  _293
REMARK  119  A    between atoms: _292  and  _295
REMARK  120  A    between atoms: _295  and  _296
REMARK  121  A    between atoms: _299  and  _301
REMARK  122  A    between atoms: _301  and  _302
REMARK  123  A    between atoms: _301  and  _304
REMARK  124  A    between atoms: _304  and  _305
REMARK  125  A    between atoms: _305  and  _306
REMARK  126  A    between atoms: _306  and  _307
REMARK  127  A    between atoms: _307  and  _308
REMARK  128  A    between atoms: _312  and  _314
REMARK  129  A    between atoms: _314  and  _315
REMARK  130  A    between atoms: _314  and  _317
REMARK  131  A    between atoms: _317  and  _318
REMARK  132  A    between atoms: _318  and  _319
REMARK  133  A    between atoms: _319  and  _320
REMARK  134  A    between atoms: _320  and  ZN_473
REMARK  135  A    between atoms: _322  and  _324
REMARK  136  A    between atoms: _324  and  _325
REMARK  137  A    between atoms: _327  and  _329
REMARK  138  A    between atoms: _329  and  _330
REMARK  139  A    between atoms: _329  and  _332
REMARK  140  A    between atoms: _332  and  _333
REMARK  141  A    between atoms: _336  and  _338
REMARK  142  A    between atoms: _338  and  _339
REMARK  143  A    between atoms: _338  and  _341
REMARK  144  A    between atoms: _344  and  _346
REMARK  145  A    between atoms: _346  and  _347
REMARK  146  A    between atoms: _346  and  _349
REMARK  147  A    between atoms: _349  and  _350
REMARK  148  A    between atoms: _350  and  _351
REMARK  149  A    between atoms: _354  and  _356
REMARK  150  A    between atoms: _356  and  _357
REMARK  151  A    between atoms: _356  and  _359
REMARK  152  A    between atoms: _359  and  _360
REMARK  153  A    between atoms: _360  and  _361
REMARK  154  A    between atoms: _363  and  _365
REMARK  155  A    between atoms: _365  and  _366
REMARK  156  A    between atoms: _365  and  _368
REMARK  157  A    between atoms: _368  and  _369
REMARK  158  A    between atoms: _369  and  _370
REMARK  159  A    between atoms: _373  and  _375
REMARK  160  A    between atoms: _375  and  _376
REMARK  161  A    between atoms: _375  and  _378
REMARK  162  A    between atoms: _378  and  _379
REMARK  163  A    between atoms: _384  and  _386
REMARK  164  A    between atoms: _386  and  _387
REMARK  165  A    between atoms: _386  and  _389
REMARK  166  A    between atoms: _389  and  _390
REMARK  167  A    between atoms: _396  and  _398
REMARK  168  A    between atoms: _398  and  _399
REMARK  169  A    between atoms: _398  and  _401
REMARK  170  A    between atoms: _401  and  _402
REMARK  171  A    between atoms: _407  and  _408
REMARK  172  A    between atoms: _410  and  _412
REMARK  173  A    between atoms: _412  and  _413
REMARK  174  A    between atoms: _412  and  _415
REMARK  175  A    between atoms: _415  and  _416
REMARK  176  A    between atoms: _421  and  _422
REMARK  177  A    between atoms: _424  and  _426
REMARK  178  A    between atoms: _426  and  _427
REMARK  179  A    between atoms: _426  and  _429
REMARK  180  A    between atoms: _430  and  _431
REMARK  181  A    between atoms: _431  and  _432
REMARK  182  A    between atoms: _441  and  _443
REMARK  183  A    between atoms: _443  and  _444
REMARK  184  A    between atoms: _443  and  _446
REMARK  185  A    between atoms: _446  and  _447
REMARK  186  A    between atoms: _447  and  _448
REMARK  187  A    between atoms: _450  and  _452
REMARK  188  A    between atoms: _452  and  _453
REMARK  189  A    between atoms: _452  and  _455
REMARK  190  A    between atoms: _455  and  _456
REMARK  191  A    between atoms: _456  and  _457
REMARK  192  A    between atoms: _462  and  _464
REMARK  193  A    between atoms: _464  and  _465
REMARK  194  A    between atoms: _464  and  _467
REMARK  195  A    between atoms: _467  and  _468
REMARK                            x       y       z     vdW  Elec       q    Type
REMARK                         _______ _______ _______ _____ _____    ______ ____
ROOT
ATOM      1  CA  VAL A   1      19.330  12.125   5.664  0.00  0.00    +0.133 C 
ENDROOT
BRANCH   1   2
ATOM      2  CB  VAL A   1      20.196  12.279   6.881  0.00  0.00    +0.023 C 
ATOM      3  CG2 VAL A   1      19.410  13.097   7.942  0.00  0.00    +0.002 C 
ATOM      4  CG1 VAL A   1      20.492  10.879   7.426  0.00  0.00    +0.002 C 
ENDBRANCH   1   2
BRANCH   1   5
ATOM      5  N   VAL A   1      20.032  11.352   4.621  0.00  0.00    -0.239 NA
ATOM      6  H   VAL A   1      21.066  11.243   4.646  0.00  0.00    +0.142 HD
ENDBRANCH   1   5
BRANCH   1   7
ATOM      7  C   VAL A   1      18.850  13.481   5.182  0.00  0.00    +0.224 C 
ATOM      8  O   VAL A   1      17.692  13.850   5.426  0.00  0.00    -0.287 OA
ENDBRANCH   1   7
TORSDOF 3
REMARK  Name = ../refined-set-2016/4k5p/4k5p_pocket.pdb
REMARK  195 active torsions:
REMARK  status: ('A' for Active; 'I' for Inactive)
REMARK    1  A    between atoms: _1  and  _3
REMARK    2  A    between atoms: _3  and  _4
REMARK    3  A    between atoms: _3  and  _6
REMARK    4  A    between atoms: _6  and  _7
REMARK    5  A    between atoms: _10  and  _12
REMARK    6  A    between atoms: _12  and  _13
REMARK    7  A    between atoms: _12  and  _15
REMARK    8  A    between atoms: _15  and  _16
REMARK    9  A    between atoms: _19  and  _21
REMARK   10  A    between atoms: _21  and  _22
REMARK   11  A    between atoms: _21  and  _24
REMARK   12  A    between atoms: _24  and  _25
REMARK   13  A    between atoms: _25  and  _26
REMARK   14  A    between atoms: _31  and  _33
REMARK   15  A    between atoms: _33  and  _34
REMARK   16  A    between atoms: _33  and  _36
REMARK   17  A    between atoms: _38  and  _40
REMARK   18  A    between atoms: _40  and  _41
REMARK   19  A    between atoms: _40  and  _43
REMARK   20  A    between atoms: _43  and  _44
REMARK   21  A    between atoms: _44  and  _45
REMARK   22  A    between atoms: _48  and  _50
REMARK   23  A    between atoms: _50  and  _51
REMARK   24  A    between atoms: _54  and  _56
REMARK   25  A    between atoms: _56  and  _57
REMARK   26  A    between atoms: _56  and  _59
REMARK   27  A    between atoms: _59  and  _60
REMARK   28  A    between atoms: _63  and  _65
REMARK   29  A    between atoms: _65  and  _66
REMARK   30  A    between atoms: _68  and  _70
REMARK   31  A    between atoms: _70  and  _71
REMARK   32  A    between atoms: _70  and  _73
REMARK   33  A    between atoms: _73  and  _74
REMARK   34  A    between atoms: _79  and  _80
REMARK   35  A    between atoms: _82  and  _84
REMARK   36  A    between atoms: _84  and  _85
REMARK   37  A    between atoms: _84  and  _87
REMARK   38  A    between atoms: _87  and  _88
REMARK   39  A    between atoms: _91  and  _93
REMARK   40  A    between atoms: _93  and  _94
REMARK   41  A    between atoms: _93  and  _96
REMARK   42  A    between atoms: _96  and  _97
REMARK   43  A    between atoms: _103  and  _105
REMARK   44  A    between atoms: _105  and  _106
REMARK   45  A    between atoms: _105  and  _108
REMARK   46  A    between atoms: _108  and  _109
REMARK   47  A    between atoms: _114  and  _116
REMARK   48  A    between atoms: _116  and  _117
REMARK   49  A    between atoms: _116  and  _119
REMARK   50  A    between atoms: _122  and  _124
REMARK   51  A    between atoms: _124  and  _125
REMARK   52  A    between atoms: _127  and  _129
REMARK   53  A    between atoms: _129  and  _130
REMARK   54  A    between atoms: _133  and  _135
REMARK   55  A    between atoms: _135  and  _136
REMARK   56  A    between atoms: _135  and  _138
REMARK   57  A    between atoms: _138  and  _139
REMARK   58  A    between atoms: _139  and  _140
REMARK   59  A    between atoms: _142  and  _144
REMARK   60  A    between atoms: _144  and  _145
REMARK   61  A    between atoms: _144  and  _147
REMARK   62  A    between atoms: _147  and  _148
REMARK   63  A    between atoms: _148  and  _149
REMARK   64  A    between atoms: _152  and  _154
REMARK   65  A    between atoms: _154  and  _155
REMARK   66  A    between atoms: _154  and  _157
REMARK   67  A    between atoms: _157  and  _158
REMARK   68  A    between atoms: _163  and  _165
REMARK   69  A    between atoms: _165  and  _166
REMARK   70  A    between atoms: _165  and  _168
REMARK   71  A    between atoms: _168  and  _169
REMARK   72  A    between atoms: _172  and  _174
REMARK   73  A    between atoms: _174  and  _175
REMARK   74  A    between atoms: _174  and  _177
REMARK   75  A    between atoms: _177  and  _178
REMARK   76  A    between atoms: _183  and  _185
REMARK   77  A    between atoms: _185  and  _186
REMARK   78  A    between atoms: _185  and  _188
REMARK   79  A    between atoms: _188  and  _189
REMARK   80  A    between atoms: _189  and  _190
REMARK   81  A    between atoms: _190  and  _191
REMARK   82  A    between atoms: _200  and  _202
REMARK   83  A    between atoms: _202  and  _203
REMARK   84  A    between atoms: _202  and  _205
REMARK   85  A    between atoms: _208  and  _210
REMARK   86  A    between atoms: _210  and  _211
REMARK   87  A    between atoms: _210  and  _213
REMARK   88  A    between atoms: _213  and  _214
REMARK   89  A    between atoms: _218  and  ZN_473
REMARK   90  A    between atoms: _219  and  _221
REMARK   91  A    between atoms: _221  and  _222
REMARK   92  A    between atoms: _221  and  _224
REMARK   93  A    between atoms: _224  and  _225
REMARK   94  A    between atoms: _225  and  _226
REMARK   95  A    between atoms: _229  and  _231
REMARK   96  A    between atoms: _231  and  _232
REMARK   97  A    between atoms: _231  and  _234
REMARK   98  A    between atoms: _234  and  _235
REMARK   99  A    between atoms: _240  and  _241
REMARK  100  A    between atoms: _243  and  _245
REMARK  101  A    between atoms: _245  and  _246
REMARK  102  A    between atoms: _245  and  _248
REMARK  103  A    between atoms: _248  and  _249
REMARK  104  A    between atoms: _253  and  ZN_473
REMARK  105  A    between atoms: _254  and  _256
REMARK  106  A    between atoms: _256  and  _257
REMARK  107  A    between atoms: _256  and  _259
REMARK  108  A    between atoms: _259  and  _260
REMARK  109  A    between atoms: _263  and  _265
REMARK  110  A    between atoms: _265  and  _266
REMARK  111  A    between atoms: _265  and  _268
REMARK  112  A    between atoms: _268  and  _269
REMARK  113  A    between atoms: _274  and  _276
REMARK  114  A    between atoms: _276  and  _277
REMARK  115  A    between atoms: _276  and  _279
REMARK  116  A    between atoms: _279  and  _280
REMARK  117  A    between atoms: _290  and  _292
REMARK  118  A    between atoms: _292  and  _293
REMARK  119  A    between atoms: _292  and  _295
REMARK  120  A    between atoms: _295  and  _296
REMARK  121  A    between atoms: _299  and  _301
REMARK  122  A    between atoms: _301  and  _302
REMARK  123  A    between atoms: _301  and  _304
REMARK  124  A    between atoms: _304  and  _305
REMARK  125  A    between atoms: _305  and  _306
REMARK  126  A    between atoms: _306  and  _307
REMARK  127  A    between atoms: _307  and  _308
REMARK  128  A    between atoms: _312  and  _314
REMARK  129  A    between atoms: _314  and  _315
REMARK  130  A    between atoms: _314  and  _317
REMARK  131  A    between atoms: _317  and  _318
REMARK  132  A    between atoms: _318  and  _319
REMARK  133  A    between atoms: _319  and  _320
REMARK  134  A    between atoms: _320  and  ZN_473
REMARK  135  A    between atoms: _322  and  _324
REMARK  136  A    between atoms: _324  and  _325
REMARK  137  A    between atoms: _327  and  _329
REMARK  138  A    between atoms: _329  and  _330
REMARK  139  A    between atoms: _329  and  _332
REMARK  140  A    between atoms: _332  and  _333
REMARK  141  A    between atoms: _336  and  _338
REMARK  142  A    between atoms: _338  and  _339
REMARK  143  A    between atoms: _338  and  _341
REMARK  144  A    between atoms: _344  and  _346
REMARK  145  A    between atoms: _346  and  _347
REMARK  146  A    between atoms: _346  and  _349
REMARK  147  A    between atoms: _349  and  _350
REMARK  148  A    between atoms: _350  and  _351
REMARK  149  A    between atoms: _354  and  _356
REMARK  150  A    between atoms: _356  and  _357
REMARK  151  A    between atoms: _356  and  _359
REMARK  152  A    between atoms: _359  and  _360
REMARK  153  A    between atoms: _360  and  _361
REMARK  154  A    between atoms: _363  and  _365
REMARK  155  A    between atoms: _365  and  _366
REMARK  156  A    between atoms: _365  and  _368
REMARK  157  A    between atoms: _368  and  _369
REMARK  158  A    between atoms: _369  and  _370
REMARK  159  A    between atoms: _373  and  _375
REMARK  160  A    between atoms: _375  and  _376
REMARK  161  A    between atoms: _375  and  _378
REMARK  162  A    between atoms: _378  and  _379
REMARK  163  A    between atoms: _384  and  _386
REMARK  164  A    between atoms: _386  and  _387
REMARK  165  A    between atoms: _386  and  _389
REMARK  166  A    between atoms: _389  and  _390
REMARK  167  A    between atoms: _396  and  _398
REMARK  168  A    between atoms: _398  and  _399
REMARK  169  A    between atoms: _398  and  _401
REMARK  170  A    between atoms: _401  and  _402
REMARK  171  A    between atoms: _407  and  _408
REMARK  172  A    between atoms: _410  and  _412
REMARK  173  A    between atoms: _412  and  _413
REMARK  174  A    between atoms: _412  and  _415
REMARK  175  A    between atoms: _415  and  _416
REMARK  176  A    between atoms: _421  and  _422
REMARK  177  A    between atoms: _424  and  _426
REMARK  178  A    between atoms: _426  and  _427
REMARK  179  A    between atoms: _426  and  _429
REMARK  180  A    between atoms: _430  and  _431
REMARK  181  A    between atoms: _431  and  _432
REMARK  182  A    between atoms: _441  and  _443
REMARK  183  A    between atoms: _443  and  _444
REMARK  184  A    between atoms: _443  and  _446
REMARK  185  A    between atoms: _446  and  _447
REMARK  186  A    between atoms: _447  and  _448
REMARK  187  A    between atoms: _450  and  _452
REMARK  188  A    between atoms: _452  and  _453
REMARK  189  A    between atoms: _452  and  _455
REMARK  190  A    between atoms: _455  and  _456
REMARK  191  A    between atoms: _456  and  _457
REMARK  192  A    between atoms: _462  and  _464
REMARK  193  A    between atoms: _464  and  _465
REMARK  194  A    between atoms: _464  and  _467
REMARK  195  A    between atoms: _467  and  _468
REMARK                            x       y       z     vdW  Elec       q    Type
REMARK                         _______ _______ _______ _____ _____    ______ ____
ROOT
ATOM      1 ZN   UNK A   2      11.395  11.009   9.098  0.00  0.00    +0.000 Zn
ENDROOT
BRANCH   1   4
ATOM      2  C   UNK A   1      14.292  10.833   6.020  0.00  0.00    +0.000 A 
ATOM      3  C   UNK A   1      13.661  11.467   7.045  0.00  0.00    +0.000 A 
ATOM      4  N   UNK A   2      12.808  10.546   7.622  0.00  0.00    +0.000 N 
ATOM      5  C   UNK A   2      12.932   9.384   6.993  0.00  0.00    +0.000 A 
ATOM      6  N   UNK A   2      13.813   9.537   6.007  0.00  0.00    +0.000 NA
BRANCH   2   7
ATOM      7  C   UNK A   1      15.335  11.303   5.067  0.00  0.00    +0.000 C 
BRANCH   7   8
ATOM      8  C   UNK A   1      14.775  12.118   3.902  0.00  0.00    +0.000 C 
BRANCH   8   9
ATOM      9  C   UNK A   1      14.048  13.391   4.452  0.00  0.00    +0.000 C 
ATOM     10  N   UNK A   2      14.775  14.255   5.146  0.00  0.00    +0.000 N 
ATOM     11  H   UNK A   2      15.788  14.076   5.299  0.00  0.00    +0.000 HD
ATOM     12  O   UNK A   1      12.818  13.501   4.362  0.00  0.00    +0.000 OA
BRANCH  10  13
ATOM     13  C   UNK A   2      14.144  15.480   5.706  0.00  0.00    +0.000 C 
BRANCH  13  14
ATOM     14  C   UNK A   2      13.505  16.384   4.652  0.00  0.00    +0.000 C 
ATOM     15  O   UNK A   2      12.426  16.978   4.930  0.00  0.00    +0.000 OA
ATOM     16  N   TYR A   3      14.084  16.433   3.459  0.00  0.00    +0.000 N 
ATOM     17  H   TYR A   3      14.983  15.933   3.308  0.00  0.00    +0.000 HD
BRANCH  16  18
ATOM     18  CA  TYR A   3      13.468  17.194   2.326  0.00  0.00    +0.000 C 
BRANCH  18  19
ATOM     19  C   TYR A   3      12.125  16.556   1.894  0.00  0.00    +0.000 C 
ATOM     20  O   TYR A   3      11.103  17.258   1.719  0.00  0.00    +0.000 OA
ENDBRANCH  18  19
BRANCH  18  21
ATOM     21  CB  TYR A   3      14.397  17.281   1.091  0.00  0.00    +0.000 C 
BRANCH  21  22
ATOM     22  CG  TYR A   3      13.669  18.080   0.008  0.00  0.00    +0.000 A 
ATOM     23  CD2 TYR A   3      13.419  19.444   0.204  0.00  0.00    +0.000 A 
ATOM     24  CE2 TYR A   3      12.668  20.159  -0.708  0.00  0.00    +0.000 A 
ATOM     25  CZ  TYR A   3      12.182  19.565  -1.822  0.00  0.00    +0.000 A 
ATOM     26  CE1 TYR A   3      12.399  18.189  -2.065  0.00  0.00    +0.000 A 
ATOM     27  CD1 TYR A   3      13.133  17.453  -1.140  0.00  0.00    +0.000 A 
BRANCH  25  28
ATOM     28  OH  TYR A   3      11.473  20.411  -2.651  0.00  0.00    +0.000 OA
ATOM     29  HH  TYR A   3      11.904  20.436  -3.542  0.00  0.00    +0.000 HD
ENDBRANCH  25  28
ENDBRANCH  21  22
ENDBRANCH  18  21
ENDBRANCH  16  18
ENDBRANCH  13  14
BRANCH  13  30
ATOM     30  C   UNK A   2      15.072  16.329   6.628  0.00  0.00    +0.000 C 
BRANCH  30  31
ATOM     31  C   UNK A   2      15.802  15.470   7.760  0.00  0.00    +0.000 C 
BRANCH  31  32
ATOM     32  C   UNK A   2      14.874  14.548   8.575  0.00  0.00    +0.000 C 
ATOM     33  O   UNK A   2      15.398  13.567   9.073  0.00  0.00    +0.000 OA
ATOM     34  O   UNK A   2      13.667  14.794   8.720  0.00  0.00    +0.000 OA
ENDBRANCH  31  32
ENDBRANCH  30  31
ENDBRANCH  13  30
ENDBRANCH  10  13
ENDBRANCH   8   9
BRANCH   8  35
ATOM     35  N   UNK A   1      15.880  12.501   3.044  0.00  0.00    +0.000 NA
ATOM     36  H   UNK A   1      16.828  12.113   3.222  0.00  0.00    +0.000 HD
ENDBRANCH   8  35
ENDBRANCH   7   8
ENDBRANCH   2   7
ENDBRANCH   1   4
BRANCH   1  37
ATOM     37  N   UNK A   2      10.410  12.177   8.095  0.00  0.00    +0.000 N 
ATOM     38  C   UNK A   2       9.130  11.980   7.774  0.00  0.00    +0.000 A 
ATOM     39  N   UNK A   2       8.725  12.984   7.006  0.00  0.00    +0.000 NA
ATOM     40  C   UNK A   2       9.793  13.855   6.768  0.00  0.00    +0.000 A 
ATOM     41  C   UNK A   2      10.812  13.389   7.515  0.00  0.00    +0.000 A 
BRANCH  40  42
ATOM     42  C   UNK A   2       9.644  15.157   5.992  0.00  0.00    +0.000 C 
BRANCH  42  43
ATOM     43  C   UNK A   2       9.070  15.022   4.562  0.00  0.00    +0.000 C 
BRANCH  43  44
ATOM     44  N   UNK A   2      10.095  14.854   3.549  0.00  0.00    +0.000 NA
ATOM     45  H   UNK A   1      11.098  14.885   3.823  0.00  0.00    +0.000 HD
ENDBRANCH  43  44
BRANCH  43  46
ATOM     46  C   UNK A   2       8.312  16.295   4.228  0.00  0.00    +0.000 C 
ATOM     47  O   UNK A   1       7.203  16.467   4.711  0.00  0.00    +0.000 OA
ENDBRANCH  43  46
ENDBRANCH  42  43
ENDBRANCH  40  42
ENDBRANCH   1  37
BRANCH   1  48
ATOM     48  O   UNK A   2      10.230   9.378   9.326  0.00  0.00    +0.000 OA
BRANCH  48  49
ATOM     49  C   UNK A   2       9.374   9.486  10.232  0.00  0.00    +0.000 C 
ATOM     50  O   UNK A   2       9.177  10.595  10.720  0.00  0.00    +0.000 OA
BRANCH  49  51
ATOM     51  C   UNK A   2       8.498   8.292  10.692  0.00  0.00    +0.000 C 
BRANCH  51  52
ATOM     52  C   UNK A   2       8.430   7.217   9.627  0.00  0.00    +0.000 C 
BRANCH  52  53
ATOM     53  C   UNK A   2       8.057   7.710   8.250  0.00  0.00    +0.000 C 
BRANCH  53  54
ATOM     54  N   UNK A   2       6.655   8.145   8.193  0.00  0.00    +0.000 N 
ATOM     55  H   UNK A   2       5.943   7.738   8.833  0.00  0.00    +0.000 HD
ATOM     56  C   UNK A   1       6.321   9.072   7.302  0.00  0.00    +0.000 C 
ATOM     57  O   UNK A   1       7.094   9.438   6.426  0.00  0.00    +0.000 OA
BRANCH  56  58
ATOM     58  C   UNK A   1       4.923   9.616   7.349  0.00  0.00    +0.000 C 
BRANCH  58  59
ATOM     59  N   UNK A   1       3.915   8.582   7.715  0.00  0.00    +0.000 NA
ATOM     60  H   UNK A   1       3.618   8.434   8.700  0.00  0.00    +0.000 HD
ENDBRANCH  58  59
BRANCH  58  61
ATOM     61  C   UNK A   1       4.848  10.924   8.159  0.00  0.00    +0.000 C 
BRANCH  61  62
ATOM     62  C   UNK A   1       5.501  10.988   9.530  0.00  0.00    +0.000 C 
BRANCH  62  63
ATOM     63  C   UNK A   1       5.457  12.468  10.009  0.00  0.00    +0.000 C 
BRANCH  63  64
ATOM     64  C   UNK A   1       5.974  12.557  11.426  0.00  0.00    +0.000 C 
BRANCH  64  65
ATOM     65  N   UNK A   1       7.436  12.705  11.448  0.00  0.00    +0.000 N 
ATOM     66  H   UNK A   1       7.762  12.764  12.434  0.00  0.00    +0.000 HD
ATOM     67  H   UNK A   1       7.873  11.883  10.985  0.00  0.00    +0.000 HD
ATOM     68  H   UNK A   1       7.703  13.573  10.941  0.00  0.00    +0.000 HD
ENDBRANCH  64  65
ENDBRANCH  63  64
ENDBRANCH  62  63
ENDBRANCH  61  62
ENDBRANCH  58  61
ENDBRANCH  56  58
ENDBRANCH  53  54
BRANCH  53  69
ATOM     69  C   UNK A   2       8.312   6.625   7.234  0.00  0.00    +0.000 C 
ATOM     70  N   TYR A   3       7.460   5.617   7.187  0.00  0.00    +0.000 N 
ATOM     71  H   TYR A   3       6.630   5.577   7.812  0.00  0.00    +0.000 HD
ATOM     72  O   UNK A   2       9.292   6.660   6.478  0.00  0.00    +0.000 OA
BRANCH  70  73
ATOM     73  CA  TYR A   3       7.749   4.519   6.178  0.00  0.00    +0.000 C 
BRANCH  73  74
ATOM     74  C   TYR A   3       7.627   5.044   4.742  0.00  0.00    +0.000 C 
ATOM     75  O   TYR A   3       8.402   4.676   3.842  0.00  0.00    +0.000 OA
ENDBRANCH  73  74
ENDBRANCH  70  73
ENDBRANCH  53  69
ENDBRANCH  52  53
ENDBRANCH  51  52
ENDBRANCH  49  51
ENDBRANCH  48  49
ENDBRANCH   1  48
TORSDOF 36
REMARK  Name = ../refined-set-2016/4k5p/4k5p_pocket.pdb
REMARK  195 active torsions:
REMARK  status: ('A' for Active; 'I' for Inactive)
REMARK    1  A    between atoms: _1  and  _3
REMARK    2  A    between atoms: _3  and  _4
REMARK    3  A    between atoms: _3  and  _6
REMARK    4  A    between atoms: _6  and  _7
REMARK    5  A    between atoms: _10  and  _12
REMARK    6  A    between atoms: _12  and  _13
REMARK    7  A    between atoms: _12  and  _15
REMARK    8  A    between atoms: _15  and  _16
REMARK    9  A    between atoms: _19  and  _21
REMARK   10  A    between atoms: _21  and  _22
REMARK   11  A    between atoms: _21  and  _24
REMARK   12  A    between atoms: _24  and  _25
REMARK   13  A    between atoms: _25  and  _26
REMARK   14  A    between atoms: _31  and  _33
REMARK   15  A    between atoms: _33  and  _34
REMARK   16  A    between atoms: _33  and  _36
REMARK   17  A    between atoms: _38  and  _40
REMARK   18  A    between atoms: _40  and  _41
REMARK   19  A    between atoms: _40  and  _43
REMARK   20  A    between atoms: _43  and  _44
REMARK   21  A    between atoms: _44  and  _45
REMARK   22  A    between atoms: _48  and  _50
REMARK   23  A    between atoms: _50  and  _51
REMARK   24  A    between atoms: _54  and  _56
REMARK   25  A    between atoms: _56  and  _57
REMARK   26  A    between atoms: _56  and  _59
REMARK   27  A    between atoms: _59  and  _60
REMARK   28  A    between atoms: _63  and  _65
REMARK   29  A    between atoms: _65  and  _66
REMARK   30  A    between atoms: _68  and  _70
REMARK   31  A    between atoms: _70  and  _71
REMARK   32  A    between atoms: _70  and  _73
REMARK   33  A    between atoms: _73  and  _74
REMARK   34  A    between atoms: _79  and  _80
REMARK   35  A    between atoms: _82  and  _84
REMARK   36  A    between atoms: _84  and  _85
REMARK   37  A    between atoms: _84  and  _87
REMARK   38  A    between atoms: _87  and  _88
REMARK   39  A    between atoms: _91  and  _93
REMARK   40  A    between atoms: _93  and  _94
REMARK   41  A    between atoms: _93  and  _96
REMARK   42  A    between atoms: _96  and  _97
REMARK   43  A    between atoms: _103  and  _105
REMARK   44  A    between atoms: _105  and  _106
REMARK   45  A    between atoms: _105  and  _108
REMARK   46  A    between atoms: _108  and  _109
REMARK   47  A    between atoms: _114  and  _116
REMARK   48  A    between atoms: _116  and  _117
REMARK   49  A    between atoms: _116  and  _119
REMARK   50  A    between atoms: _122  and  _124
REMARK   51  A    between atoms: _124  and  _125
REMARK   52  A    between atoms: _127  and  _129
REMARK   53  A    between atoms: _129  and  _130
REMARK   54  A    between atoms: _133  and  _135
REMARK   55  A    between atoms: _135  and  _136
REMARK   56  A    between atoms: _135  and  _138
REMARK   57  A    between atoms: _138  and  _139
REMARK   58  A    between atoms: _139  and  _140
REMARK   59  A    between atoms: _142  and  _144
REMARK   60  A    between atoms: _144  and  _145
REMARK   61  A    between atoms: _144  and  _147
REMARK   62  A    between atoms: _147  and  _148
REMARK   63  A    between atoms: _148  and  _149
REMARK   64  A    between atoms: _152  and  _154
REMARK   65  A    between atoms: _154  and  _155
REMARK   66  A    between atoms: _154  and  _157
REMARK   67  A    between atoms: _157  and  _158
REMARK   68  A    between atoms: _163  and  _165
REMARK   69  A    between atoms: _165  and  _166
REMARK   70  A    between atoms: _165  and  _168
REMARK   71  A    between atoms: _168  and  _169
REMARK   72  A    between atoms: _172  and  _174
REMARK   73  A    between atoms: _174  and  _175
REMARK   74  A    between atoms: _174  and  _177
REMARK   75  A    between atoms: _177  and  _178
REMARK   76  A    between atoms: _183  and  _185
REMARK   77  A    between atoms: _185  and  _186
REMARK   78  A    between atoms: _185  and  _188
REMARK   79  A    between atoms: _188  and  _189
REMARK   80  A    between atoms: _189  and  _190
REMARK   81  A    between atoms: _190  and  _191
REMARK   82  A    between atoms: _200  and  _202
REMARK   83  A    between atoms: _202  and  _203
REMARK   84  A    between atoms: _202  and  _205
REMARK   85  A    between atoms: _208  and  _210
REMARK   86  A    between atoms: _210  and  _211
REMARK   87  A    between atoms: _210  and  _213
REMARK   88  A    between atoms: _213  and  _214
REMARK   89  A    between atoms: _218  and  ZN_473
REMARK   90  A    between atoms: _219  and  _221
REMARK   91  A    between atoms: _221  and  _222
REMARK   92  A    between atoms: _221  and  _224
REMARK   93  A    between atoms: _224  and  _225
REMARK   94  A    between atoms: _225  and  _226
REMARK   95  A    between atoms: _229  and  _231
REMARK   96  A    between atoms: _231  and  _232
REMARK   97  A    between atoms: _231  and  _234
REMARK   98  A    between atoms: _234  and  _235
REMARK   99  A    between atoms: _240  and  _241
REMARK  100  A    between atoms: _243  and  _245
REMARK  101  A    between atoms: _245  and  _246
REMARK  102  A    between atoms: _245  and  _248
REMARK  103  A    between atoms: _248  and  _249
REMARK  104  A    between atoms: _253  and  ZN_473
REMARK  105  A    between atoms: _254  and  _256
REMARK  106  A    between atoms: _256  and  _257
REMARK  107  A    between atoms: _256  and  _259
REMARK  108  A    between atoms: _259  and  _260
REMARK  109  A    between atoms: _263  and  _265
REMARK  110  A    between atoms: _265  and  _266
REMARK  111  A    between atoms: _265  and  _268
REMARK  112  A    between atoms: _268  and  _269
REMARK  113  A    between atoms: _274  and  _276
REMARK  114  A    between atoms: _276  and  _277
REMARK  115  A    between atoms: _276  and  _279
REMARK  116  A    between atoms: _279  and  _280
REMARK  117  A    between atoms: _290  and  _292
REMARK  118  A    between atoms: _292  and  _293
REMARK  119  A    between atoms: _292  and  _295
REMARK  120  A    between atoms: _295  and  _296
REMARK  121  A    between atoms: _299  and  _301
REMARK  122  A    between atoms: _301  and  _302
REMARK  123  A    between atoms: _301  and  _304
REMARK  124  A    between atoms: _304  and  _305
REMARK  125  A    between atoms: _305  and  _306
REMARK  126  A    between atoms: _306  and  _307
REMARK  127  A    between atoms: _307  and  _308
REMARK  128  A    between atoms: _312  and  _314
REMARK  129  A    between atoms: _314  and  _315
REMARK  130  A    between atoms: _314  and  _317
REMARK  131  A    between atoms: _317  and  _318
REMARK  132  A    between atoms: _318  and  _319
REMARK  133  A    between atoms: _319  and  _320
REMARK  134  A    between atoms: _320  and  ZN_473
REMARK  135  A    between atoms: _322  and  _324
REMARK  136  A    between atoms: _324  and  _325
REMARK  137  A    between atoms: _327  and  _329
REMARK  138  A    between atoms: _329  and  _330
REMARK  139  A    between atoms: _329  and  _332
REMARK  140  A    between atoms: _332  and  _333
REMARK  141  A    between atoms: _336  and  _338
REMARK  142  A    between atoms: _338  and  _339
REMARK  143  A    between atoms: _338  and  _341
REMARK  144  A    between atoms: _344  and  _346
REMARK  145  A    between atoms: _346  and  _347
REMARK  146  A    between atoms: _346  and  _349
REMARK  147  A    between atoms: _349  and  _350
REMARK  148  A    between atoms: _350  and  _351
REMARK  149  A    between atoms: _354  and  _356
REMARK  150  A    between atoms: _356  and  _357
REMARK  151  A    between atoms: _356  and  _359
REMARK  152  A    between atoms: _359  and  _360
REMARK  153  A    between atoms: _360  and  _361
REMARK  154  A    between atoms: _363  and  _365
REMARK  155  A    between atoms: _365  and  _366
REMARK  156  A    between atoms: _365  and  _368
REMARK  157  A    between atoms: _368  and  _369
REMARK  158  A    between atoms: _369  and  _370
REMARK  159  A    between atoms: _373  and  _375
REMARK  160  A    between atoms: _375  and  _376
REMARK  161  A    between atoms: _375  and  _378
REMARK  162  A    between atoms: _378  and  _379
REMARK  163  A    between atoms: _384  and  _386
REMARK  164  A    between atoms: _386  and  _387
REMARK  165  A    between atoms: _386  and  _389
REMARK  166  A    between atoms: _389  and  _390
REMARK  167  A    between atoms: _396  and  _398
REMARK  168  A    between atoms: _398  and  _399
REMARK  169  A    between atoms: _398  and  _401
REMARK  170  A    between atoms: _401  and  _402
REMARK  171  A    between atoms: _407  and  _408
REMARK  172  A    between atoms: _410  and  _412
REMARK  173  A    between atoms: _412  and  _413
REMARK  174  A    between atoms: _412  and  _415
REMARK  175  A    between atoms: _415  and  _416
REMARK  176  A    between atoms: _421  and  _422
REMARK  177  A    between atoms: _424  and  _426
REMARK  178  A    between atoms: _426  and  _427
REMARK  179  A    between atoms: _426  and  _429
REMARK  180  A    between atoms: _430  and  _431
REMARK  181  A    between atoms: _431  and  _432
REMARK  182  A    between atoms: _441  and  _443
REMARK  183  A    between atoms: _443  and  _444
REMARK  184  A    between atoms: _443  and  _446
REMARK  185  A    between atoms: _446  and  _447
REMARK  186  A    between atoms: _447  and  _448
REMARK  187  A    between atoms: _450  and  _452
REMARK  188  A    between atoms: _452  and  _453
REMARK  189  A    between atoms: _452  and  _455
REMARK  190  A    between atoms: _455  and  _456
REMARK  191  A    between atoms: _456  and  _457
REMARK  192  A    between atoms: _462  and  _464
REMARK  193  A    between atoms: _464  and  _465
REMARK  194  A    between atoms: _464  and  _467
REMARK  195  A    between atoms: _467  and  _468
REMARK                            x       y       z     vdW  Elec       q    Type
REMARK                         _______ _______ _______ _____ _____    ______ ____
ROOT
ATOM      1  CA  THR A   1       5.062  13.335   3.425  0.00  0.00    +0.160 C 
ENDROOT
BRANCH   1   2
ATOM      2  N   THR A   1       5.379  14.527   2.623  0.00  0.00    -0.237 NA
ATOM      3  H   THR A   1       6.315  14.555   2.171  0.00  0.00    +0.142 HD
ENDBRANCH   1   2
BRANCH   1   4
ATOM      4  C   THR A   1       5.449  13.448   4.906  0.00  0.00    +0.227 C 
ATOM      5  O   THR A   1       6.318  12.757   5.445  0.00  0.00    -0.287 OA
ENDBRANCH   1   4
BRANCH   1   6
ATOM      6  CB  THR A   1       5.573  11.976   2.716  0.00  0.00    +0.134 C 
ATOM      7  CG2 THR A   1       4.918  11.881   1.311  0.00  0.00    +0.034 C 
BRANCH   6   8
ATOM      8  OG1 THR A   1       6.997  11.991   2.519  0.00  0.00    -0.383 OA
ATOM      9  HG1 THR A   1       7.449  12.078   3.395  0.00  0.00    +0.210 HD
ENDBRANCH   6   8
ENDBRANCH   1   6
TORSDOF 4
REMARK  Name = ../refined-set-2016/4k5p/4k5p_pocket.pdb
REMARK  195 active torsions:
REMARK  status: ('A' for Active; 'I' for Inactive)
REMARK    1  A    between atoms: _1  and  _3
REMARK    2  A    between atoms: _3  and  _4
REMARK    3  A    between atoms: _3  and  _6
REMARK    4  A    between atoms: _6  and  _7
REMARK    5  A    between atoms: _10  and  _12
REMARK    6  A    between atoms: _12  and  _13
REMARK    7  A    between atoms: _12  and  _15
REMARK    8  A    between atoms: _15  and  _16
REMARK    9  A    between atoms: _19  and  _21
REMARK   10  A    between atoms: _21  and  _22
REMARK   11  A    between atoms: _21  and  _24
REMARK   12  A    between atoms: _24  and  _25
REMARK   13  A    between atoms: _25  and  _26
REMARK   14  A    between atoms: _31  and  _33
REMARK   15  A    between atoms: _33  and  _34
REMARK   16  A    between atoms: _33  and  _36
REMARK   17  A    between atoms: _38  and  _40
REMARK   18  A    between atoms: _40  and  _41
REMARK   19  A    between atoms: _40  and  _43
REMARK   20  A    between atoms: _43  and  _44
REMARK   21  A    between atoms: _44  and  _45
REMARK   22  A    between atoms: _48  and  _50
REMARK   23  A    between atoms: _50  and  _51
REMARK   24  A    between atoms: _54  and  _56
REMARK   25  A    between atoms: _56  and  _57
REMARK   26  A    between atoms: _56  and  _59
REMARK   27  A    between atoms: _59  and  _60
REMARK   28  A    between atoms: _63  and  _65
REMARK   29  A    between atoms: _65  and  _66
REMARK   30  A    between atoms: _68  and  _70
REMARK   31  A    between atoms: _70  and  _71
REMARK   32  A    between atoms: _70  and  _73
REMARK   33  A    between atoms: _73  and  _74
REMARK   34  A    between atoms: _79  and  _80
REMARK   35  A    between atoms: _82  and  _84
REMARK   36  A    between atoms: _84  and  _85
REMARK   37  A    between atoms: _84  and  _87
REMARK   38  A    between atoms: _87  and  _88
REMARK   39  A    between atoms: _91  and  _93
REMARK   40  A    between atoms: _93  and  _94
REMARK   41  A    between atoms: _93  and  _96
REMARK   42  A    between atoms: _96  and  _97
REMARK   43  A    between atoms: _103  and  _105
REMARK   44  A    between atoms: _105  and  _106
REMARK   45  A    between atoms: _105  and  _108
REMARK   46  A    between atoms: _108  and  _109
REMARK   47  A    between atoms: _114  and  _116
REMARK   48  A    between atoms: _116  and  _117
REMARK   49  A    between atoms: _116  and  _119
REMARK   50  A    between atoms: _122  and  _124
REMARK   51  A    between atoms: _124  and  _125
REMARK   52  A    between atoms: _127  and  _129
REMARK   53  A    between atoms: _129  and  _130
REMARK   54  A    between atoms: _133  and  _135
REMARK   55  A    between atoms: _135  and  _136
REMARK   56  A    between atoms: _135  and  _138
REMARK   57  A    between atoms: _138  and  _139
REMARK   58  A    between atoms: _139  and  _140
REMARK   59  A    between atoms: _142  and  _144
REMARK   60  A    between atoms: _144  and  _145
REMARK   61  A    between atoms: _144  and  _147
REMARK   62  A    between atoms: _147  and  _148
REMARK   63  A    between atoms: _148  and  _149
REMARK   64  A    between atoms: _152  and  _154
REMARK   65  A    between atoms: _154  and  _155
REMARK   66  A    between atoms: _154  and  _157
REMARK   67  A    between atoms: _157  and  _158
REMARK   68  A    between atoms: _163  and  _165
REMARK   69  A    between atoms: _165  and  _166
REMARK   70  A    between atoms: _165  and  _168
REMARK   71  A    between atoms: _168  and  _169
REMARK   72  A    between atoms: _172  and  _174
REMARK   73  A    between atoms: _174  and  _175
REMARK   74  A    between atoms: _174  and  _177
REMARK   75  A    between atoms: _177  and  _178
REMARK   76  A    between atoms: _183  and  _185
REMARK   77  A    between atoms: _185  and  _186
REMARK   78  A    between atoms: _185  and  _188
REMARK   79  A    between atoms: _188  and  _189
REMARK   80  A    between atoms: _189  and  _190
REMARK   81  A    between atoms: _190  and  _191
REMARK   82  A    between atoms: _200  and  _202
REMARK   83  A    between atoms: _202  and  _203
REMARK   84  A    between atoms: _202  and  _205
REMARK   85  A    between atoms: _208  and  _210
REMARK   86  A    between atoms: _210  and  _211
REMARK   87  A    between atoms: _210  and  _213
REMARK   88  A    between atoms: _213  and  _214
REMARK   89  A    between atoms: _218  and  ZN_473
REMARK   90  A    between atoms: _219  and  _221
REMARK   91  A    between atoms: _221  and  _222
REMARK   92  A    between atoms: _221  and  _224
REMARK   93  A    between atoms: _224  and  _225
REMARK   94  A    between atoms: _225  and  _226
REMARK   95  A    between atoms: _229  and  _231
REMARK   96  A    between atoms: _231  and  _232
REMARK   97  A    between atoms: _231  and  _234
REMARK   98  A    between atoms: _234  and  _235
REMARK   99  A    between atoms: _240  and  _241
REMARK  100  A    between atoms: _243  and  _245
REMARK  101  A    between atoms: _245  and  _246
REMARK  102  A    between atoms: _245  and  _248
REMARK  103  A    between atoms: _248  and  _249
REMARK  104  A    between atoms: _253  and  ZN_473
REMARK  105  A    between atoms: _254  and  _256
REMARK  106  A    between atoms: _256  and  _257
REMARK  107  A    between atoms: _256  and  _259
REMARK  108  A    between atoms: _259  and  _260
REMARK  109  A    between atoms: _263  and  _265
REMARK  110  A    between atoms: _265  and  _266
REMARK  111  A    between atoms: _265  and  _268
REMARK  112  A    between atoms: _268  and  _269
REMARK  113  A    between atoms: _274  and  _276
REMARK  114  A    between atoms: _276  and  _277
REMARK  115  A    between atoms: _276  and  _279
REMARK  116  A    between atoms: _279  and  _280
REMARK  117  A    between atoms: _290  and  _292
REMARK  118  A    between atoms: _292  and  _293
REMARK  119  A    between atoms: _292  and  _295
REMARK  120  A    between atoms: _295  and  _296
REMARK  121  A    between atoms: _299  and  _301
REMARK  122  A    between atoms: _301  and  _302
REMARK  123  A    between atoms: _301  and  _304
REMARK  124  A    between atoms: _304  and  _305
REMARK  125  A    between atoms: _305  and  _306
REMARK  126  A    between atoms: _306  and  _307
REMARK  127  A    between atoms: _307  and  _308
REMARK  128  A    between atoms: _312  and  _314
REMARK  129  A    between atoms: _314  and  _315
REMARK  130  A    between atoms: _314  and  _317
REMARK  131  A    between atoms: _317  and  _318
REMARK  132  A    between atoms: _318  and  _319
REMARK  133  A    between atoms: _319  and  _320
REMARK  134  A    between atoms: _320  and  ZN_473
REMARK  135  A    between atoms: _322  and  _324
REMARK  136  A    between atoms: _324  and  _325
REMARK  137  A    between atoms: _327  and  _329
REMARK  138  A    between atoms: _329  and  _330
REMARK  139  A    between atoms: _329  and  _332
REMARK  140  A    between atoms: _332  and  _333
REMARK  141  A    between atoms: _336  and  _338
REMARK  142  A    between atoms: _338  and  _339
REMARK  143  A    between atoms: _338  and  _341
REMARK  144  A    between atoms: _344  and  _346
REMARK  145  A    between atoms: _346  and  _347
REMARK  146  A    between atoms: _346  and  _349
REMARK  147  A    between atoms: _349  and  _350
REMARK  148  A    between atoms: _350  and  _351
REMARK  149  A    between atoms: _354  and  _356
REMARK  150  A    between atoms: _356  and  _357
REMARK  151  A    between atoms: _356  and  _359
REMARK  152  A    between atoms: _359  and  _360
REMARK  153  A    between atoms: _360  and  _361
REMARK  154  A    between atoms: _363  and  _365
REMARK  155  A    between atoms: _365  and  _366
REMARK  156  A    between atoms: _365  and  _368
REMARK  157  A    between atoms: _368  and  _369
REMARK  158  A    between atoms: _369  and  _370
REMARK  159  A    between atoms: _373  and  _375
REMARK  160  A    between atoms: _375  and  _376
REMARK  161  A    between atoms: _375  and  _378
REMARK  162  A    between atoms: _378  and  _379
REMARK  163  A    between atoms: _384  and  _386
REMARK  164  A    between atoms: _386  and  _387
REMARK  165  A    between atoms: _386  and  _389
REMARK  166  A    between atoms: _389  and  _390
REMARK  167  A    between atoms: _396  and  _398
REMARK  168  A    between atoms: _398  and  _399
REMARK  169  A    between atoms: _398  and  _401
REMARK  170  A    between atoms: _401  and  _402
REMARK  171  A    between atoms: _407  and  _408
REMARK  172  A    between atoms: _410  and  _412
REMARK  173  A    between atoms: _412  and  _413
REMARK  174  A    between atoms: _412  and  _415
REMARK  175  A    between atoms: _415  and  _416
REMARK  176  A    between atoms: _421  and  _422
REMARK  177  A    between atoms: _424  and  _426
REMARK  178  A    between atoms: _426  and  _427
REMARK  179  A    between atoms: _426  and  _429
REMARK  180  A    between atoms: _430  and  _431
REMARK  181  A    between atoms: _431  and  _432
REMARK  182  A    between atoms: _441  and  _443
REMARK  183  A    between atoms: _443  and  _444
REMARK  184  A    between atoms: _443  and  _446
REMARK  185  A    between atoms: _446  and  _447
REMARK  186  A    between atoms: _447  and  _448
REMARK  187  A    between atoms: _450  and  _452
REMARK  188  A    between atoms: _452  and  _453
REMARK  189  A    between atoms: _452  and  _455
REMARK  190  A    between atoms: _455  and  _456
REMARK  191  A    between atoms: _456  and  _457
REMARK  192  A    between atoms: _462  and  _464
REMARK  193  A    between atoms: _464  and  _465
REMARK  194  A    between atoms: _464  and  _467
REMARK  195  A    between atoms: _467  and  _468
REMARK                            x       y       z     vdW  Elec       q    Type
REMARK                         _______ _______ _______ _____ _____    ______ ____
ROOT
ATOM      1  CB  ASN A   1       5.805  19.152   6.363  0.00  0.00    +0.110 C 
ENDROOT
BRANCH   1   2
ATOM      2  CG  ASN A   1       6.989  18.704   7.231  0.00  0.00    +0.221 C 
ATOM      3  OD1 ASN A   1       6.839  17.893   8.147  0.00  0.00    -0.275 OA
ATOM      4  ND2 ASN A   1       8.146  19.279   6.989  0.00  0.00    -0.329 N 
ATOM      5 HD21 ASN A   1       8.972  19.054   7.579  0.00  0.00    +0.145 HD
ATOM      6 HD22 ASN A   1       8.235  19.959   6.207  0.00  0.00    +0.145 HD
ENDBRANCH   1   2
BRANCH   1   7
ATOM      7  CA  ASN A   1       4.523  18.335   6.638  0.00  0.00    +0.142 C 
BRANCH   7   8
ATOM      8  N   ASN A   1       4.677  16.903   6.355  0.00  0.00    -0.239 NA
ATOM      9  H   ASN A   1       5.099  16.606   5.452  0.00  0.00    +0.142 HD
ENDBRANCH   7   8
BRANCH   7  10
ATOM     10  C   ASN A   1       3.282  18.951   5.948  0.00  0.00    +0.225 C 
ATOM     11  O   ASN A   1       2.584  19.678   6.576  0.00  0.00    -0.287 OA
ENDBRANCH   7  10
ENDBRANCH   1   7
TORSDOF 4
REMARK  Name = ../refined-set-2016/4k5p/4k5p_pocket.pdb
REMARK  195 active torsions:
REMARK  status: ('A' for Active; 'I' for Inactive)
REMARK    1  A    between atoms: _1  and  _3
REMARK    2  A    between atoms: _3  and  _4
REMARK    3  A    between atoms: _3  and  _6
REMARK    4  A    between atoms: _6  and  _7
REMARK    5  A    between atoms: _10  and  _12
REMARK    6  A    between atoms: _12  and  _13
REMARK    7  A    between atoms: _12  and  _15
REMARK    8  A    between atoms: _15  and  _16
REMARK    9  A    between atoms: _19  and  _21
REMARK   10  A    between atoms: _21  and  _22
REMARK   11  A    between atoms: _21  and  _24
REMARK   12  A    between atoms: _24  and  _25
REMARK   13  A    between atoms: _25  and  _26
REMARK   14  A    between atoms: _31  and  _33
REMARK   15  A    between atoms: _33  and  _34
REMARK   16  A    between atoms: _33  and  _36
REMARK   17  A    between atoms: _38  and  _40
REMARK   18  A    between atoms: _40  and  _41
REMARK   19  A    between atoms: _40  and  _43
REMARK   20  A    between atoms: _43  and  _44
REMARK   21  A    between atoms: _44  and  _45
REMARK   22  A    between atoms: _48  and  _50
REMARK   23  A    between atoms: _50  and  _51
REMARK   24  A    between atoms: _54  and  _56
REMARK   25  A    between atoms: _56  and  _57
REMARK   26  A    between atoms: _56  and  _59
REMARK   27  A    between atoms: _59  and  _60
REMARK   28  A    between atoms: _63  and  _65
REMARK   29  A    between atoms: _65  and  _66
REMARK   30  A    between atoms: _68  and  _70
REMARK   31  A    between atoms: _70  and  _71
REMARK   32  A    between atoms: _70  and  _73
REMARK   33  A    between atoms: _73  and  _74
REMARK   34  A    between atoms: _79  and  _80
REMARK   35  A    between atoms: _82  and  _84
REMARK   36  A    between atoms: _84  and  _85
REMARK   37  A    between atoms: _84  and  _87
REMARK   38  A    between atoms: _87  and  _88
REMARK   39  A    between atoms: _91  and  _93
REMARK   40  A    between atoms: _93  and  _94
REMARK   41  A    between atoms: _93  and  _96
REMARK   42  A    between atoms: _96  and  _97
REMARK   43  A    between atoms: _103  and  _105
REMARK   44  A    between atoms: _105  and  _106
REMARK   45  A    between atoms: _105  and  _108
REMARK   46  A    between atoms: _108  and  _109
REMARK   47  A    between atoms: _114  and  _116
REMARK   48  A    between atoms: _116  and  _117
REMARK   49  A    between atoms: _116  and  _119
REMARK   50  A    between atoms: _122  and  _124
REMARK   51  A    between atoms: _124  and  _125
REMARK   52  A    between atoms: _127  and  _129
REMARK   53  A    between atoms: _129  and  _130
REMARK   54  A    between atoms: _133  and  _135
REMARK   55  A    between atoms: _135  and  _136
REMARK   56  A    between atoms: _135  and  _138
REMARK   57  A    between atoms: _138  and  _139
REMARK   58  A    between atoms: _139  and  _140
REMARK   59  A    between atoms: _142  and  _144
REMARK   60  A    between atoms: _144  and  _145
REMARK   61  A    between atoms: _144  and  _147
REMARK   62  A    between atoms: _147  and  _148
REMARK   63  A    between atoms: _148  and  _149
REMARK   64  A    between atoms: _152  and  _154
REMARK   65  A    between atoms: _154  and  _155
REMARK   66  A    between atoms: _154  and  _157
REMARK   67  A    between atoms: _157  and  _158
REMARK   68  A    between atoms: _163  and  _165
REMARK   69  A    between atoms: _165  and  _166
REMARK   70  A    between atoms: _165  and  _168
REMARK   71  A    between atoms: _168  and  _169
REMARK   72  A    between atoms: _172  and  _174
REMARK   73  A    between atoms: _174  and  _175
REMARK   74  A    between atoms: _174  and  _177
REMARK   75  A    between atoms: _177  and  _178
REMARK   76  A    between atoms: _183  and  _185
REMARK   77  A    between atoms: _185  and  _186
REMARK   78  A    between atoms: _185  and  _188
REMARK   79  A    between atoms: _188  and  _189
REMARK   80  A    between atoms: _189  and  _190
REMARK   81  A    between atoms: _190  and  _191
REMARK   82  A    between atoms: _200  and  _202
REMARK   83  A    between atoms: _202  and  _203
REMARK   84  A    between atoms: _202  and  _205
REMARK   85  A    between atoms: _208  and  _210
REMARK   86  A    between atoms: _210  and  _211
REMARK   87  A    between atoms: _210  and  _213
REMARK   88  A    between atoms: _213  and  _214
REMARK   89  A    between atoms: _218  and  ZN_473
REMARK   90  A    between atoms: _219  and  _221
REMARK   91  A    between atoms: _221  and  _222
REMARK   92  A    between atoms: _221  and  _224
REMARK   93  A    between atoms: _224  and  _225
REMARK   94  A    between atoms: _225  and  _226
REMARK   95  A    between atoms: _229  and  _231
REMARK   96  A    between atoms: _231  and  _232
REMARK   97  A    between atoms: _231  and  _234
REMARK   98  A    between atoms: _234  and  _235
REMARK   99  A    between atoms: _240  and  _241
REMARK  100  A    between atoms: _243  and  _245
REMARK  101  A    between atoms: _245  and  _246
REMARK  102  A    between atoms: _245  and  _248
REMARK  103  A    between atoms: _248  and  _249
REMARK  104  A    between atoms: _253  and  ZN_473
REMARK  105  A    between atoms: _254  and  _256
REMARK  106  A    between atoms: _256  and  _257
REMARK  107  A    between atoms: _256  and  _259
REMARK  108  A    between atoms: _259  and  _260
REMARK  109  A    between atoms: _263  and  _265
REMARK  110  A    between atoms: _265  and  _266
REMARK  111  A    between atoms: _265  and  _268
REMARK  112  A    between atoms: _268  and  _269
REMARK  113  A    between atoms: _274  and  _276
REMARK  114  A    between atoms: _276  and  _277
REMARK  115  A    between atoms: _276  and  _279
REMARK  116  A    between atoms: _279  and  _280
REMARK  117  A    between atoms: _290  and  _292
REMARK  118  A    between atoms: _292  and  _293
REMARK  119  A    between atoms: _292  and  _295
REMARK  120  A    between atoms: _295  and  _296
REMARK  121  A    between atoms: _299  and  _301
REMARK  122  A    between atoms: _301  and  _302
REMARK  123  A    between atoms: _301  and  _304
REMARK  124  A    between atoms: _304  and  _305
REMARK  125  A    between atoms: _305  and  _306
REMARK  126  A    between atoms: _306  and  _307
REMARK  127  A    between atoms: _307  and  _308
REMARK  128  A    between atoms: _312  and  _314
REMARK  129  A    between atoms: _314  and  _315
REMARK  130  A    between atoms: _314  and  _317
REMARK  131  A    between atoms: _317  and  _318
REMARK  132  A    between atoms: _318  and  _319
REMARK  133  A    between atoms: _319  and  _320
REMARK  134  A    between atoms: _320  and  ZN_473
REMARK  135  A    between atoms: _322  and  _324
REMARK  136  A    between atoms: _324  and  _325
REMARK  137  A    between atoms: _327  and  _329
REMARK  138  A    between atoms: _329  and  _330
REMARK  139  A    between atoms: _329  and  _332
REMARK  140  A    between atoms: _332  and  _333
REMARK  141  A    between atoms: _336  and  _338
REMARK  142  A    between atoms: _338  and  _339
REMARK  143  A    between atoms: _338  and  _341
REMARK  144  A    between atoms: _344  and  _346
REMARK  145  A    between atoms: _346  and  _347
REMARK  146  A    between atoms: _346  and  _349
REMARK  147  A    between atoms: _349  and  _350
REMARK  148  A    between atoms: _350  and  _351
REMARK  149  A    between atoms: _354  and  _356
REMARK  150  A    between atoms: _356  and  _357
REMARK  151  A    between atoms: _356  and  _359
REMARK  152  A    between atoms: _359  and  _360
REMARK  153  A    between atoms: _360  and  _361
REMARK  154  A    between atoms: _363  and  _365
REMARK  155  A    between atoms: _365  and  _366
REMARK  156  A    between atoms: _365  and  _368
REMARK  157  A    between atoms: _368  and  _369
REMARK  158  A    between atoms: _369  and  _370
REMARK  159  A    between atoms: _373  and  _375
REMARK  160  A    between atoms: _375  and  _376
REMARK  161  A    between atoms: _375  and  _378
REMARK  162  A    between atoms: _378  and  _379
REMARK  163  A    between atoms: _384  and  _386
REMARK  164  A    between atoms: _386  and  _387
REMARK  165  A    between atoms: _386  and  _389
REMARK  166  A    between atoms: _389  and  _390
REMARK  167  A    between atoms: _396  and  _398
REMARK  168  A    between atoms: _398  and  _399
REMARK  169  A    between atoms: _398  and  _401
REMARK  170  A    between atoms: _401  and  _402
REMARK  171  A    between atoms: _407  and  _408
REMARK  172  A    between atoms: _410  and  _412
REMARK  173  A    between atoms: _412  and  _413
REMARK  174  A    between atoms: _412  and  _415
REMARK  175  A    between atoms: _415  and  _416
REMARK  176  A    between atoms: _421  and  _422
REMARK  177  A    between atoms: _424  and  _426
REMARK  178  A    between atoms: _426  and  _427
REMARK  179  A    between atoms: _426  and  _429
REMARK  180  A    between atoms: _430  and  _431
REMARK  181  A    between atoms: _431  and  _432
REMARK  182  A    between atoms: _441  and  _443
REMARK  183  A    between atoms: _443  and  _444
REMARK  184  A    between atoms: _443  and  _446
REMARK  185  A    between atoms: _446  and  _447
REMARK  186  A    between atoms: _447  and  _448
REMARK  187  A    between atoms: _450  and  _452
REMARK  188  A    between atoms: _452  and  _453
REMARK  189  A    between atoms: _452  and  _455
REMARK  190  A    between atoms: _455  and  _456
REMARK  191  A    between atoms: _456  and  _457
REMARK  192  A    between atoms: _462  and  _464
REMARK  193  A    between atoms: _464  and  _465
REMARK  194  A    between atoms: _464  and  _467
REMARK  195  A    between atoms: _467  and  _468
REMARK                            x       y       z     vdW  Elec       q    Type
REMARK                         _______ _______ _______ _____ _____    ______ ____
ROOT
ATOM      1  CG  TRP A   1       2.155  10.671  17.934  0.00  0.00    -0.002 A 
ATOM      2  CD1 TRP A   1       1.809  11.465  19.006  0.00  0.00    +0.068 A 
ATOM      3  NE1 TRP A   1       2.415  12.703  18.883  0.00  0.00    -0.352 N 
ATOM      4  HE1 TRP A   1       2.375  13.469  19.586  0.00  0.00    +0.166 HD
ATOM      5  CE2 TRP A   1       3.083  12.756  17.671  0.00  0.00    +0.056 A 
ATOM      6  CZ2 TRP A   1       3.825  13.817  17.086  0.00  0.00    +0.017 A 
ATOM      7  CH2 TRP A   1       4.460  13.586  15.866  0.00  0.00    +0.001 A 
ATOM      8  CZ3 TRP A   1       4.348  12.309  15.208  0.00  0.00    +0.000 A 
ATOM      9  CE3 TRP A   1       3.610  11.244  15.827  0.00  0.00    +0.001 A 
ATOM     10  CD2 TRP A   1       2.982  11.475  17.072  0.00  0.00    +0.013 A 
ENDROOT
BRANCH   1  11
ATOM     11  CB  TRP A   1       1.754   9.241  17.695  0.00  0.00    +0.053 C 
BRANCH  11  12
ATOM     12  CA  TRP A   1       1.002   9.089  16.373  0.00  0.00    +0.137 C 
BRANCH  12  13
ATOM     13  N   TRP A   1      -0.348   9.647  16.509  0.00  0.00    -0.239 NA
ATOM     14  H   TRP A   1      -0.757   9.786  17.455  0.00  0.00    +0.142 HD
ENDBRANCH  12  13
BRANCH  12  15
ATOM     15  C   TRP A   1       0.953   7.638  15.977  0.00  0.00    +0.224 C 
ATOM     16  O   TRP A   1       1.960   7.089  15.500  0.00  0.00    -0.287 OA
ENDBRANCH  12  15
ENDBRANCH  11  12
ENDBRANCH   1  11
TORSDOF 4
REMARK  Name = ../refined-set-2016/4k5p/4k5p_pocket.pdb
REMARK  195 active torsions:
REMARK  status: ('A' for Active; 'I' for Inactive)
REMARK    1  A    between atoms: _1  and  _3
REMARK    2  A    between atoms: _3  and  _4
REMARK    3  A    between atoms: _3  and  _6
REMARK    4  A    between atoms: _6  and  _7
REMARK    5  A    between atoms: _10  and  _12
REMARK    6  A    between atoms: _12  and  _13
REMARK    7  A    between atoms: _12  and  _15
REMARK    8  A    between atoms: _15  and  _16
REMARK    9  A    between atoms: _19  and  _21
REMARK   10  A    between atoms: _21  and  _22
REMARK   11  A    between atoms: _21  and  _24
REMARK   12  A    between atoms: _24  and  _25
REMARK   13  A    between atoms: _25  and  _26
REMARK   14  A    between atoms: _31  and  _33
REMARK   15  A    between atoms: _33  and  _34
REMARK   16  A    between atoms: _33  and  _36
REMARK   17  A    between atoms: _38  and  _40
REMARK   18  A    between atoms: _40  and  _41
REMARK   19  A    between atoms: _40  and  _43
REMARK   20  A    between atoms: _43  and  _44
REMARK   21  A    between atoms: _44  and  _45
REMARK   22  A    between atoms: _48  and  _50
REMARK   23  A    between atoms: _50  and  _51
REMARK   24  A    between atoms: _54  and  _56
REMARK   25  A    between atoms: _56  and  _57
REMARK   26  A    between atoms: _56  and  _59
REMARK   27  A    between atoms: _59  and  _60
REMARK   28  A    between atoms: _63  and  _65
REMARK   29  A    between atoms: _65  and  _66
REMARK   30  A    between atoms: _68  and  _70
REMARK   31  A    between atoms: _70  and  _71
REMARK   32  A    between atoms: _70  and  _73
REMARK   33  A    between atoms: _73  and  _74
REMARK   34  A    between atoms: _79  and  _80
REMARK   35  A    between atoms: _82  and  _84
REMARK   36  A    between atoms: _84  and  _85
REMARK   37  A    between atoms: _84  and  _87
REMARK   38  A    between atoms: _87  and  _88
REMARK   39  A    between atoms: _91  and  _93
REMARK   40  A    between atoms: _93  and  _94
REMARK   41  A    between atoms: _93  and  _96
REMARK   42  A    between atoms: _96  and  _97
REMARK   43  A    between atoms: _103  and  _105
REMARK   44  A    between atoms: _105  and  _106
REMARK   45  A    between atoms: _105  and  _108
REMARK   46  A    between atoms: _108  and  _109
REMARK   47  A    between atoms: _114  and  _116
REMARK   48  A    between atoms: _116  and  _117
REMARK   49  A    between atoms: _116  and  _119
REMARK   50  A    between atoms: _122  and  _124
REMARK   51  A    between atoms: _124  and  _125
REMARK   52  A    between atoms: _127  and  _129
REMARK   53  A    between atoms: _129  and  _130
REMARK   54  A    between atoms: _133  and  _135
REMARK   55  A    between atoms: _135  and  _136
REMARK   56  A    between atoms: _135  and  _138
REMARK   57  A    between atoms: _138  and  _139
REMARK   58  A    between atoms: _139  and  _140
REMARK   59  A    between atoms: _142  and  _144
REMARK   60  A    between atoms: _144  and  _145
REMARK   61  A    between atoms: _144  and  _147
REMARK   62  A    between atoms: _147  and  _148
REMARK   63  A    between atoms: _148  and  _149
REMARK   64  A    between atoms: _152  and  _154
REMARK   65  A    between atoms: _154  and  _155
REMARK   66  A    between atoms: _154  and  _157
REMARK   67  A    between atoms: _157  and  _158
REMARK   68  A    between atoms: _163  and  _165
REMARK   69  A    between atoms: _165  and  _166
REMARK   70  A    between atoms: _165  and  _168
REMARK   71  A    between atoms: _168  and  _169
REMARK   72  A    between atoms: _172  and  _174
REMARK   73  A    between atoms: _174  and  _175
REMARK   74  A    between atoms: _174  and  _177
REMARK   75  A    between atoms: _177  and  _178
REMARK   76  A    between atoms: _183  and  _185
REMARK   77  A    between atoms: _185  and  _186
REMARK   78  A    between atoms: _185  and  _188
REMARK   79  A    between atoms: _188  and  _189
REMARK   80  A    between atoms: _189  and  _190
REMARK   81  A    between atoms: _190  and  _191
REMARK   82  A    between atoms: _200  and  _202
REMARK   83  A    between atoms: _202  and  _203
REMARK   84  A    between atoms: _202  and  _205
REMARK   85  A    between atoms: _208  and  _210
REMARK   86  A    between atoms: _210  and  _211
REMARK   87  A    between atoms: _210  and  _213
REMARK   88  A    between atoms: _213  and  _214
REMARK   89  A    between atoms: _218  and  ZN_473
REMARK   90  A    between atoms: _219  and  _221
REMARK   91  A    between atoms: _221  and  _222
REMARK   92  A    between atoms: _221  and  _224
REMARK   93  A    between atoms: _224  and  _225
REMARK   94  A    between atoms: _225  and  _226
REMARK   95  A    between atoms: _229  and  _231
REMARK   96  A    between atoms: _231  and  _232
REMARK   97  A    between atoms: _231  and  _234
REMARK   98  A    between atoms: _234  and  _235
REMARK   99  A    between atoms: _240  and  _241
REMARK  100  A    between atoms: _243  and  _245
REMARK  101  A    between atoms: _245  and  _246
REMARK  102  A    between atoms: _245  and  _248
REMARK  103  A    between atoms: _248  and  _249
REMARK  104  A    between atoms: _253  and  ZN_473
REMARK  105  A    between atoms: _254  and  _256
REMARK  106  A    between atoms: _256  and  _257
REMARK  107  A    between atoms: _256  and  _259
REMARK  108  A    between atoms: _259  and  _260
REMARK  109  A    between atoms: _263  and  _265
REMARK  110  A    between atoms: _265  and  _266
REMARK  111  A    between atoms: _265  and  _268
REMARK  112  A    between atoms: _268  and  _269
REMARK  113  A    between atoms: _274  and  _276
REMARK  114  A    between atoms: _276  and  _277
REMARK  115  A    between atoms: _276  and  _279
REMARK  116  A    between atoms: _279  and  _280
REMARK  117  A    between atoms: _290  and  _292
REMARK  118  A    between atoms: _292  and  _293
REMARK  119  A    between atoms: _292  and  _295
REMARK  120  A    between atoms: _295  and  _296
REMARK  121  A    between atoms: _299  and  _301
REMARK  122  A    between atoms: _301  and  _302
REMARK  123  A    between atoms: _301  and  _304
REMARK  124  A    between atoms: _304  and  _305
REMARK  125  A    between atoms: _305  and  _306
REMARK  126  A    between atoms: _306  and  _307
REMARK  127  A    between atoms: _307  and  _308
REMARK  128  A    between atoms: _312  and  _314
REMARK  129  A    between atoms: _314  and  _315
REMARK  130  A    between atoms: _314  and  _317
REMARK  131  A    between atoms: _317  and  _318
REMARK  132  A    between atoms: _318  and  _319
REMARK  133  A    between atoms: _319  and  _320
REMARK  134  A    between atoms: _320  and  ZN_473
REMARK  135  A    between atoms: _322  and  _324
REMARK  136  A    between atoms: _324  and  _325
REMARK  137  A    between atoms: _327  and  _329
REMARK  138  A    between atoms: _329  and  _330
REMARK  139  A    between atoms: _329  and  _332
REMARK  140  A    between atoms: _332  and  _333
REMARK  141  A    between atoms: _336  and  _338
REMARK  142  A    between atoms: _338  and  _339
REMARK  143  A    between atoms: _338  and  _341
REMARK  144  A    between atoms: _344  and  _346
REMARK  145  A    between atoms: _346  and  _347
REMARK  146  A    between atoms: _346  and  _349
REMARK  147  A    between atoms: _349  and  _350
REMARK  148  A    between atoms: _350  and  _351
REMARK  149  A    between atoms: _354  and  _356
REMARK  150  A    between atoms: _356  and  _357
REMARK  151  A    between atoms: _356  and  _359
REMARK  152  A    between atoms: _359  and  _360
REMARK  153  A    between atoms: _360  and  _361
REMARK  154  A    between atoms: _363  and  _365
REMARK  155  A    between atoms: _365  and  _366
REMARK  156  A    between atoms: _365  and  _368
REMARK  157  A    between atoms: _368  and  _369
REMARK  158  A    between atoms: _369  and  _370
REMARK  159  A    between atoms: _373  and  _375
REMARK  160  A    between atoms: _375  and  _376
REMARK  161  A    between atoms: _375  and  _378
REMARK  162  A    between atoms: _378  and  _379
REMARK  163  A    between atoms: _384  and  _386
REMARK  164  A    between atoms: _386  and  _387
REMARK  165  A    between atoms: _386  and  _389
REMARK  166  A    between atoms: _389  and  _390
REMARK  167  A    between atoms: _396  and  _398
REMARK  168  A    between atoms: _398  and  _399
REMARK  169  A    between atoms: _398  and  _401
REMARK  170  A    between atoms: _401  and  _402
REMARK  171  A    between atoms: _407  and  _408
REMARK  172  A    between atoms: _410  and  _412
REMARK  173  A    between atoms: _412  and  _413
REMARK  174  A    between atoms: _412  and  _415
REMARK  175  A    between atoms: _415  and  _416
REMARK  176  A    between atoms: _421  and  _422
REMARK  177  A    between atoms: _424  and  _426
REMARK  178  A    between atoms: _426  and  _427
REMARK  179  A    between atoms: _426  and  _429
REMARK  180  A    between atoms: _430  and  _431
REMARK  181  A    between atoms: _431  and  _432
REMARK  182  A    between atoms: _441  and  _443
REMARK  183  A    between atoms: _443  and  _444
REMARK  184  A    between atoms: _443  and  _446
REMARK  185  A    between atoms: _446  and  _447
REMARK  186  A    between atoms: _447  and  _448
REMARK  187  A    between atoms: _450  and  _452
REMARK  188  A    between atoms: _452  and  _453
REMARK  189  A    between atoms: _452  and  _455
REMARK  190  A    between atoms: _455  and  _456
REMARK  191  A    between atoms: _456  and  _457
REMARK  192  A    between atoms: _462  and  _464
REMARK  193  A    between atoms: _464  and  _465
REMARK  194  A    between atoms: _464  and  _467
REMARK  195  A    between atoms: _467  and  _468
REMARK                            x       y       z     vdW  Elec       q    Type
REMARK                         _______ _______ _______ _____ _____    ______ ____
ROOT
ATOM      1  CA  LEU A   1       3.675   7.348  12.287  0.00  0.00    +0.133 C 
ENDROOT
BRANCH   1   2
ATOM      2  N   LEU A   1       2.258   6.926  12.560  0.00  0.00    -0.239 NA
ATOM      3  H   LEU A   1       1.995   6.583  13.506  0.00  0.00    +0.142 HD
ENDBRANCH   1   2
BRANCH   1   4
ATOM      4  C   LEU A   1       4.273   6.737  11.030  0.00  0.00    +0.224 C 
ATOM      5  O   LEU A   1       4.984   7.414  10.267  0.00  0.00    -0.287 OA
ENDBRANCH   1   4
BRANCH   1   6
ATOM      6  CB  LEU A   1       4.582   7.056  13.486  0.00  0.00    +0.025 C 
BRANCH   6   7
ATOM      7  CG  LEU A   1       6.021   7.480  13.354  0.00  0.00    +0.002 C 
ATOM      8  CD2 LEU A   1       6.735   7.042  14.607  0.00  0.00    +0.000 C 
ATOM      9  CD1 LEU A   1       6.005   9.064  13.223  0.00  0.00    +0.000 C 
ENDBRANCH   6   7
ENDBRANCH   1   6
TORSDOF 4
REMARK  Name = ../refined-set-2016/4k5p/4k5p_pocket.pdb
REMARK  195 active torsions:
REMARK  status: ('A' for Active; 'I' for Inactive)
REMARK    1  A    between atoms: _1  and  _3
REMARK    2  A    between atoms: _3  and  _4
REMARK    3  A    between atoms: _3  and  _6
REMARK    4  A    between atoms: _6  and  _7
REMARK    5  A    between atoms: _10  and  _12
REMARK    6  A    between atoms: _12  and  _13
REMARK    7  A    between atoms: _12  and  _15
REMARK    8  A    between atoms: _15  and  _16
REMARK    9  A    between atoms: _19  and  _21
REMARK   10  A    between atoms: _21  and  _22
REMARK   11  A    between atoms: _21  and  _24
REMARK   12  A    between atoms: _24  and  _25
REMARK   13  A    between atoms: _25  and  _26
REMARK   14  A    between atoms: _31  and  _33
REMARK   15  A    between atoms: _33  and  _34
REMARK   16  A    between atoms: _33  and  _36
REMARK   17  A    between atoms: _38  and  _40
REMARK   18  A    between atoms: _40  and  _41
REMARK   19  A    between atoms: _40  and  _43
REMARK   20  A    between atoms: _43  and  _44
REMARK   21  A    between atoms: _44  and  _45
REMARK   22  A    between atoms: _48  and  _50
REMARK   23  A    between atoms: _50  and  _51
REMARK   24  A    between atoms: _54  and  _56
REMARK   25  A    between atoms: _56  and  _57
REMARK   26  A    between atoms: _56  and  _59
REMARK   27  A    between atoms: _59  and  _60
REMARK   28  A    between atoms: _63  and  _65
REMARK   29  A    between atoms: _65  and  _66
REMARK   30  A    between atoms: _68  and  _70
REMARK   31  A    between atoms: _70  and  _71
REMARK   32  A    between atoms: _70  and  _73
REMARK   33  A    between atoms: _73  and  _74
REMARK   34  A    between atoms: _79  and  _80
REMARK   35  A    between atoms: _82  and  _84
REMARK   36  A    between atoms: _84  and  _85
REMARK   37  A    between atoms: _84  and  _87
REMARK   38  A    between atoms: _87  and  _88
REMARK   39  A    between atoms: _91  and  _93
REMARK   40  A    between atoms: _93  and  _94
REMARK   41  A    between atoms: _93  and  _96
REMARK   42  A    between atoms: _96  and  _97
REMARK   43  A    between atoms: _103  and  _105
REMARK   44  A    between atoms: _105  and  _106
REMARK   45  A    between atoms: _105  and  _108
REMARK   46  A    between atoms: _108  and  _109
REMARK   47  A    between atoms: _114  and  _116
REMARK   48  A    between atoms: _116  and  _117
REMARK   49  A    between atoms: _116  and  _119
REMARK   50  A    between atoms: _122  and  _124
REMARK   51  A    between atoms: _124  and  _125
REMARK   52  A    between atoms: _127  and  _129
REMARK   53  A    between atoms: _129  and  _130
REMARK   54  A    between atoms: _133  and  _135
REMARK   55  A    between atoms: _135  and  _136
REMARK   56  A    between atoms: _135  and  _138
REMARK   57  A    between atoms: _138  and  _139
REMARK   58  A    between atoms: _139  and  _140
REMARK   59  A    between atoms: _142  and  _144
REMARK   60  A    between atoms: _144  and  _145
REMARK   61  A    between atoms: _144  and  _147
REMARK   62  A    between atoms: _147  and  _148
REMARK   63  A    between atoms: _148  and  _149
REMARK   64  A    between atoms: _152  and  _154
REMARK   65  A    between atoms: _154  and  _155
REMARK   66  A    between atoms: _154  and  _157
REMARK   67  A    between atoms: _157  and  _158
REMARK   68  A    between atoms: _163  and  _165
REMARK   69  A    between atoms: _165  and  _166
REMARK   70  A    between atoms: _165  and  _168
REMARK   71  A    between atoms: _168  and  _169
REMARK   72  A    between atoms: _172  and  _174
REMARK   73  A    between atoms: _174  and  _175
REMARK   74  A    between atoms: _174  and  _177
REMARK   75  A    between atoms: _177  and  _178
REMARK   76  A    between atoms: _183  and  _185
REMARK   77  A    between atoms: _185  and  _186
REMARK   78  A    between atoms: _185  and  _188
REMARK   79  A    between atoms: _188  and  _189
REMARK   80  A    between atoms: _189  and  _190
REMARK   81  A    between atoms: _190  and  _191
REMARK   82  A    between atoms: _200  and  _202
REMARK   83  A    between atoms: _202  and  _203
REMARK   84  A    between atoms: _202  and  _205
REMARK   85  A    between atoms: _208  and  _210
REMARK   86  A    between atoms: _210  and  _211
REMARK   87  A    between atoms: _210  and  _213
REMARK   88  A    between atoms: _213  and  _214
REMARK   89  A    between atoms: _218  and  ZN_473
REMARK   90  A    between atoms: _219  and  _221
REMARK   91  A    between atoms: _221  and  _222
REMARK   92  A    between atoms: _221  and  _224
REMARK   93  A    between atoms: _224  and  _225
REMARK   94  A    between atoms: _225  and  _226
REMARK   95  A    between atoms: _229  and  _231
REMARK   96  A    between atoms: _231  and  _232
REMARK   97  A    between atoms: _231  and  _234
REMARK   98  A    between atoms: _234  and  _235
REMARK   99  A    between atoms: _240  and  _241
REMARK  100  A    between atoms: _243  and  _245
REMARK  101  A    between atoms: _245  and  _246
REMARK  102  A    between atoms: _245  and  _248
REMARK  103  A    between atoms: _248  and  _249
REMARK  104  A    between atoms: _253  and  ZN_473
REMARK  105  A    between atoms: _254  and  _256
REMARK  106  A    between atoms: _256  and  _257
REMARK  107  A    between atoms: _256  and  _259
REMARK  108  A    between atoms: _259  and  _260
REMARK  109  A    between atoms: _263  and  _265
REMARK  110  A    between atoms: _265  and  _266
REMARK  111  A    between atoms: _265  and  _268
REMARK  112  A    between atoms: _268  and  _269
REMARK  113  A    between atoms: _274  and  _276
REMARK  114  A    between atoms: _276  and  _277
REMARK  115  A    between atoms: _276  and  _279
REMARK  116  A    between atoms: _279  and  _280
REMARK  117  A    between atoms: _290  and  _292
REMARK  118  A    between atoms: _292  and  _293
REMARK  119  A    between atoms: _292  and  _295
REMARK  120  A    between atoms: _295  and  _296
REMARK  121  A    between atoms: _299  and  _301
REMARK  122  A    between atoms: _301  and  _302
REMARK  123  A    between atoms: _301  and  _304
REMARK  124  A    between atoms: _304  and  _305
REMARK  125  A    between atoms: _305  and  _306
REMARK  126  A    between atoms: _306  and  _307
REMARK  127  A    between atoms: _307  and  _308
REMARK  128  A    between atoms: _312  and  _314
REMARK  129  A    between atoms: _314  and  _315
REMARK  130  A    between atoms: _314  and  _317
REMARK  131  A    between atoms: _317  and  _318
REMARK  132  A    between atoms: _318  and  _319
REMARK  133  A    between atoms: _319  and  _320
REMARK  134  A    between atoms: _320  and  ZN_473
REMARK  135  A    between atoms: _322  and  _324
REMARK  136  A    between atoms: _324  and  _325
REMARK  137  A    between atoms: _327  and  _329
REMARK  138  A    between atoms: _329  and  _330
REMARK  139  A    between atoms: _329  and  _332
REMARK  140  A    between atoms: _332  and  _333
REMARK  141  A    between atoms: _336  and  _338
REMARK  142  A    between atoms: _338  and  _339
REMARK  143  A    between atoms: _338  and  _341
REMARK  144  A    between atoms: _344  and  _346
REMARK  145  A    between atoms: _346  and  _347
REMARK  146  A    between atoms: _346  and  _349
REMARK  147  A    between atoms: _349  and  _350
REMARK  148  A    between atoms: _350  and  _351
REMARK  149  A    between atoms: _354  and  _356
REMARK  150  A    between atoms: _356  and  _357
REMARK  151  A    between atoms: _356  and  _359
REMARK  152  A    between atoms: _359  and  _360
REMARK  153  A    between atoms: _360  and  _361
REMARK  154  A    between atoms: _363  and  _365
REMARK  155  A    between atoms: _365  and  _366
REMARK  156  A    between atoms: _365  and  _368
REMARK  157  A    between atoms: _368  and  _369
REMARK  158  A    between atoms: _369  and  _370
REMARK  159  A    between atoms: _373  and  _375
REMARK  160  A    between atoms: _375  and  _376
REMARK  161  A    between atoms: _375  and  _378
REMARK  162  A    between atoms: _378  and  _379
REMARK  163  A    between atoms: _384  and  _386
REMARK  164  A    between atoms: _386  and  _387
REMARK  165  A    between atoms: _386  and  _389
REMARK  166  A    between atoms: _389  and  _390
REMARK  167  A    between atoms: _396  and  _398
REMARK  168  A    between atoms: _398  and  _399
REMARK  169  A    between atoms: _398  and  _401
REMARK  170  A    between atoms: _401  and  _402
REMARK  171  A    between atoms: _407  and  _408
REMARK  172  A    between atoms: _410  and  _412
REMARK  173  A    between atoms: _412  and  _413
REMARK  174  A    between atoms: _412  and  _415
REMARK  175  A    between atoms: _415  and  _416
REMARK  176  A    between atoms: _421  and  _422
REMARK  177  A    between atoms: _424  and  _426
REMARK  178  A    between atoms: _426  and  _427
REMARK  179  A    between atoms: _426  and  _429
REMARK  180  A    between atoms: _430  and  _431
REMARK  181  A    between atoms: _431  and  _432
REMARK  182  A    between atoms: _441  and  _443
REMARK  183  A    between atoms: _443  and  _444
REMARK  184  A    between atoms: _443  and  _446
REMARK  185  A    between atoms: _446  and  _447
REMARK  186  A    between atoms: _447  and  _448
REMARK  187  A    between atoms: _450  and  _452
REMARK  188  A    between atoms: _452  and  _453
REMARK  189  A    between atoms: _452  and  _455
REMARK  190  A    between atoms: _455  and  _456
REMARK  191  A    between atoms: _456  and  _457
REMARK  192  A    between atoms: _462  and  _464
REMARK  193  A    between atoms: _464  and  _465
REMARK  194  A    between atoms: _464  and  _467
REMARK  195  A    between atoms: _467  and  _468
REMARK                            x       y       z     vdW  Elec       q    Type
REMARK                         _______ _______ _______ _____ _____    ______ ____
ROOT
ATOM      1  C   THR A   1      10.813   8.221   3.419  0.00  0.00    +0.241 C 
ATOM      2  N   VAL A   2      10.914   7.126   4.175  0.00  0.00    -0.298 N 
ATOM      3  H   VAL A   2      10.170   6.889   4.862  0.00  0.00    +0.150 HD
ATOM      4  O   THR A   1      11.687   8.540   2.601  0.00  0.00    -0.274 OA
ENDROOT
BRANCH   1   5
ATOM      5  CA  THR A   1       9.522   9.051   3.523  0.00  0.00    +0.172 C 
BRANCH   5   6
ATOM      6  N   THR A   1       8.377   8.191   3.708  0.00  0.00    -0.236 NA
ATOM      7  H   THR A   1       7.937   8.154   4.649  0.00  0.00    +0.142 HD
ENDBRANCH   5   6
BRANCH   5   8
ATOM      8  CB  THR A   1       9.607  10.010   4.698  0.00  0.00    +0.135 C 
ATOM      9  CG2 THR A   1      10.881  10.965   4.490  0.00  0.00    +0.034 C 
BRANCH   8  10
ATOM     10  OG1 THR A   1       8.431  10.860   4.600  0.00  0.00    -0.383 OA
ATOM     11  HG1 THR A   1       8.447  11.345   3.737  0.00  0.00    +0.210 HD
ENDBRANCH   8  10
ENDBRANCH   5   8
ENDBRANCH   1   5
BRANCH   2  12
ATOM     12  CA  VAL A   2      12.094   6.259   4.022  0.00  0.00    +0.137 C 
BRANCH  12  13
ATOM     13  CB  VAL A   2      12.212   5.225   5.131  0.00  0.00    +0.026 C 
ATOM     14  CG2 VAL A   2      12.411   5.858   6.521  0.00  0.00    +0.002 C 
ATOM     15  CG1 VAL A   2      13.356   4.197   4.819  0.00  0.00    +0.002 C 
ENDBRANCH  12  13
BRANCH  12  16
ATOM     16  C   VAL A   2      12.055   5.629   2.603  0.00  0.00    +0.227 C 
ATOM     17  O   VAL A   2      13.067   5.548   1.966  0.00  0.00    -0.286 OA
ENDBRANCH  12  16
ENDBRANCH   2  12
TORSDOF 7
REMARK  Name = ../refined-set-2016/4k5p/4k5p_pocket.pdb
REMARK  195 active torsions:
REMARK  status: ('A' for Active; 'I' for Inactive)
REMARK    1  A    between atoms: _1  and  _3
REMARK    2  A    between atoms: _3  and  _4
REMARK    3  A    between atoms: _3  and  _6
REMARK    4  A    between atoms: _6  and  _7
REMARK    5  A    between atoms: _10  and  _12
REMARK    6  A    between atoms: _12  and  _13
REMARK    7  A    between atoms: _12  and  _15
REMARK    8  A    between atoms: _15  and  _16
REMARK    9  A    between atoms: _19  and  _21
REMARK   10  A    between atoms: _21  and  _22
REMARK   11  A    between atoms: _21  and  _24
REMARK   12  A    between atoms: _24  and  _25
REMARK   13  A    between atoms: _25  and  _26
REMARK   14  A    between atoms: _31  and  _33
REMARK   15  A    between atoms: _33  and  _34
REMARK   16  A    between atoms: _33  and  _36
REMARK   17  A    between atoms: _38  and  _40
REMARK   18  A    between atoms: _40  and  _41
REMARK   19  A    between atoms: _40  and  _43
REMARK   20  A    between atoms: _43  and  _44
REMARK   21  A    between atoms: _44  and  _45
REMARK   22  A    between atoms: _48  and  _50
REMARK   23  A    between atoms: _50  and  _51
REMARK   24  A    between atoms: _54  and  _56
REMARK   25  A    between atoms: _56  and  _57
REMARK   26  A    between atoms: _56  and  _59
REMARK   27  A    between atoms: _59  and  _60
REMARK   28  A    between atoms: _63  and  _65
REMARK   29  A    between atoms: _65  and  _66
REMARK   30  A    between atoms: _68  and  _70
REMARK   31  A    between atoms: _70  and  _71
REMARK   32  A    between atoms: _70  and  _73
REMARK   33  A    between atoms: _73  and  _74
REMARK   34  A    between atoms: _79  and  _80
REMARK   35  A    between atoms: _82  and  _84
REMARK   36  A    between atoms: _84  and  _85
REMARK   37  A    between atoms: _84  and  _87
REMARK   38  A    between atoms: _87  and  _88
REMARK   39  A    between atoms: _91  and  _93
REMARK   40  A    between atoms: _93  and  _94
REMARK   41  A    between atoms: _93  and  _96
REMARK   42  A    between atoms: _96  and  _97
REMARK   43  A    between atoms: _103  and  _105
REMARK   44  A    between atoms: _105  and  _106
REMARK   45  A    between atoms: _105  and  _108
REMARK   46  A    between atoms: _108  and  _109
REMARK   47  A    between atoms: _114  and  _116
REMARK   48  A    between atoms: _116  and  _117
REMARK   49  A    between atoms: _116  and  _119
REMARK   50  A    between atoms: _122  and  _124
REMARK   51  A    between atoms: _124  and  _125
REMARK   52  A    between atoms: _127  and  _129
REMARK   53  A    between atoms: _129  and  _130
REMARK   54  A    between atoms: _133  and  _135
REMARK   55  A    between atoms: _135  and  _136
REMARK   56  A    between atoms: _135  and  _138
REMARK   57  A    between atoms: _138  and  _139
REMARK   58  A    between atoms: _139  and  _140
REMARK   59  A    between atoms: _142  and  _144
REMARK   60  A    between atoms: _144  and  _145
REMARK   61  A    between atoms: _144  and  _147
REMARK   62  A    between atoms: _147  and  _148
REMARK   63  A    between atoms: _148  and  _149
REMARK   64  A    between atoms: _152  and  _154
REMARK   65  A    between atoms: _154  and  _155
REMARK   66  A    between atoms: _154  and  _157
REMARK   67  A    between atoms: _157  and  _158
REMARK   68  A    between atoms: _163  and  _165
REMARK   69  A    between atoms: _165  and  _166
REMARK   70  A    between atoms: _165  and  _168
REMARK   71  A    between atoms: _168  and  _169
REMARK   72  A    between atoms: _172  and  _174
REMARK   73  A    between atoms: _174  and  _175
REMARK   74  A    between atoms: _174  and  _177
REMARK   75  A    between atoms: _177  and  _178
REMARK   76  A    between atoms: _183  and  _185
REMARK   77  A    between atoms: _185  and  _186
REMARK   78  A    between atoms: _185  and  _188
REMARK   79  A    between atoms: _188  and  _189
REMARK   80  A    between atoms: _189  and  _190
REMARK   81  A    between atoms: _190  and  _191
REMARK   82  A    between atoms: _200  and  _202
REMARK   83  A    between atoms: _202  and  _203
REMARK   84  A    between atoms: _202  and  _205
REMARK   85  A    between atoms: _208  and  _210
REMARK   86  A    between atoms: _210  and  _211
REMARK   87  A    between atoms: _210  and  _213
REMARK   88  A    between atoms: _213  and  _214
REMARK   89  A    between atoms: _218  and  ZN_473
REMARK   90  A    between atoms: _219  and  _221
REMARK   91  A    between atoms: _221  and  _222
REMARK   92  A    between atoms: _221  and  _224
REMARK   93  A    between atoms: _224  and  _225
REMARK   94  A    between atoms: _225  and  _226
REMARK   95  A    between atoms: _229  and  _231
REMARK   96  A    between atoms: _231  and  _232
REMARK   97  A    between atoms: _231  and  _234
REMARK   98  A    between atoms: _234  and  _235
REMARK   99  A    between atoms: _240  and  _241
REMARK  100  A    between atoms: _243  and  _245
REMARK  101  A    between atoms: _245  and  _246
REMARK  102  A    between atoms: _245  and  _248
REMARK  103  A    between atoms: _248  and  _249
REMARK  104  A    between atoms: _253  and  ZN_473
REMARK  105  A    between atoms: _254  and  _256
REMARK  106  A    between atoms: _256  and  _257
REMARK  107  A    between atoms: _256  and  _259
REMARK  108  A    between atoms: _259  and  _260
REMARK  109  A    between atoms: _263  and  _265
REMARK  110  A    between atoms: _265  and  _266
REMARK  111  A    between atoms: _265  and  _268
REMARK  112  A    between atoms: _268  and  _269
REMARK  113  A    between atoms: _274  and  _276
REMARK  114  A    between atoms: _276  and  _277
REMARK  115  A    between atoms: _276  and  _279
REMARK  116  A    between atoms: _279  and  _280
REMARK  117  A    between atoms: _290  and  _292
REMARK  118  A    between atoms: _292  and  _293
REMARK  119  A    between atoms: _292  and  _295
REMARK  120  A    between atoms: _295  and  _296
REMARK  121  A    between atoms: _299  and  _301
REMARK  122  A    between atoms: _301  and  _302
REMARK  123  A    between atoms: _301  and  _304
REMARK  124  A    between atoms: _304  and  _305
REMARK  125  A    between atoms: _305  and  _306
REMARK  126  A    between atoms: _306  and  _307
REMARK  127  A    between atoms: _307  and  _308
REMARK  128  A    between atoms: _312  and  _314
REMARK  129  A    between atoms: _314  and  _315
REMARK  130  A    between atoms: _314  and  _317
REMARK  131  A    between atoms: _317  and  _318
REMARK  132  A    between atoms: _318  and  _319
REMARK  133  A    between atoms: _319  and  _320
REMARK  134  A    between atoms: _320  and  ZN_473
REMARK  135  A    between atoms: _322  and  _324
REMARK  136  A    between atoms: _324  and  _325
REMARK  137  A    between atoms: _327  and  _329
REMARK  138  A    between atoms: _329  and  _330
REMARK  139  A    between atoms: _329  and  _332
REMARK  140  A    between atoms: _332  and  _333
REMARK  141  A    between atoms: _336  and  _338
REMARK  142  A    between atoms: _338  and  _339
REMARK  143  A    between atoms: _338  and  _341
REMARK  144  A    between atoms: _344  and  _346
REMARK  145  A    between atoms: _346  and  _347
REMARK  146  A    between atoms: _346  and  _349
REMARK  147  A    between atoms: _349  and  _350
REMARK  148  A    between atoms: _350  and  _351
REMARK  149  A    between atoms: _354  and  _356
REMARK  150  A    between atoms: _356  and  _357
REMARK  151  A    between atoms: _356  and  _359
REMARK  152  A    between atoms: _359  and  _360
REMARK  153  A    between atoms: _360  and  _361
REMARK  154  A    between atoms: _363  and  _365
REMARK  155  A    between atoms: _365  and  _366
REMARK  156  A    between atoms: _365  and  _368
REMARK  157  A    between atoms: _368  and  _369
REMARK  158  A    between atoms: _369  and  _370
REMARK  159  A    between atoms: _373  and  _375
REMARK  160  A    between atoms: _375  and  _376
REMARK  161  A    between atoms: _375  and  _378
REMARK  162  A    between atoms: _378  and  _379
REMARK  163  A    between atoms: _384  and  _386
REMARK  164  A    between atoms: _386  and  _387
REMARK  165  A    between atoms: _386  and  _389
REMARK  166  A    between atoms: _389  and  _390
REMARK  167  A    between atoms: _396  and  _398
REMARK  168  A    between atoms: _398  and  _399
REMARK  169  A    between atoms: _398  and  _401
REMARK  170  A    between atoms: _401  and  _402
REMARK  171  A    between atoms: _407  and  _408
REMARK  172  A    between atoms: _410  and  _412
REMARK  173  A    between atoms: _412  and  _413
REMARK  174  A    between atoms: _412  and  _415
REMARK  175  A    between atoms: _415  and  _416
REMARK  176  A    between atoms: _421  and  _422
REMARK  177  A    between atoms: _424  and  _426
REMARK  178  A    between atoms: _426  and  _427
REMARK  179  A    between atoms: _426  and  _429
REMARK  180  A    between atoms: _430  and  _431
REMARK  181  A    between atoms: _431  and  _432
REMARK  182  A    between atoms: _441  and  _443
REMARK  183  A    between atoms: _443  and  _444
REMARK  184  A    between atoms: _443  and  _446
REMARK  185  A    between atoms: _446  and  _447
REMARK  186  A    between atoms: _447  and  _448
REMARK  187  A    between atoms: _450  and  _452
REMARK  188  A    between atoms: _452  and  _453
REMARK  189  A    between atoms: _452  and  _455
REMARK  190  A    between atoms: _455  and  _456
REMARK  191  A    between atoms: _456  and  _457
REMARK  192  A    between atoms: _462  and  _464
REMARK  193  A    between atoms: _464  and  _465
REMARK  194  A    between atoms: _464  and  _467
REMARK  195  A    between atoms: _467  and  _468
REMARK                            x       y       z     vdW  Elec       q    Type
REMARK                         _______ _______ _______ _____ _____    ______ ____
ROOT
ATOM      1  CA  GLU A   1      14.588   8.494   0.506  0.00  0.00    +0.134 C 
ENDROOT
BRANCH   1   2
ATOM      2  N   GLU A   1      13.149   8.332   0.244  0.00  0.00    -0.239 NA
ATOM      3  H   GLU A   1      12.517   8.190   1.058  0.00  0.00    +0.142 HD
ENDBRANCH   1   2
BRANCH   1   4
ATOM      4  C   GLU A   1      15.376   7.358  -0.140  0.00  0.00    +0.224 C 
ATOM      5  O   GLU A   1      16.448   7.610  -0.741  0.00  0.00    -0.287 OA
ENDBRANCH   1   4
BRANCH   1   6
ATOM      6  CB  GLU A   1      14.783   8.480   2.053  0.00  0.00    +0.037 C 
BRANCH   6   7
ATOM      7  CG  GLU A   1      16.154   8.217   2.508  0.00  0.00    +0.116 C 
BRANCH   7   8
ATOM      8  CD  GLU A   1      16.284   7.700   4.000  0.00  0.00    +0.365 C 
ATOM      9  OE2 GLU A   1      15.349   7.684   4.844  0.00  0.00    -0.246 OA
ATOM     10  OE1 GLU A   1      17.441   7.270   4.291  0.00  0.00    -0.246 OA
ENDBRANCH   7   8
ENDBRANCH   6   7
ENDBRANCH   1   6
TORSDOF 5
REMARK  Name = ../refined-set-2016/4k5p/4k5p_pocket.pdb
REMARK  195 active torsions:
REMARK  status: ('A' for Active; 'I' for Inactive)
REMARK    1  A    between atoms: _1  and  _3
REMARK    2  A    between atoms: _3  and  _4
REMARK    3  A    between atoms: _3  and  _6
REMARK    4  A    between atoms: _6  and  _7
REMARK    5  A    between atoms: _10  and  _12
REMARK    6  A    between atoms: _12  and  _13
REMARK    7  A    between atoms: _12  and  _15
REMARK    8  A    between atoms: _15  and  _16
REMARK    9  A    between atoms: _19  and  _21
REMARK   10  A    between atoms: _21  and  _22
REMARK   11  A    between atoms: _21  and  _24
REMARK   12  A    between atoms: _24  and  _25
REMARK   13  A    between atoms: _25  and  _26
REMARK   14  A    between atoms: _31  and  _33
REMARK   15  A    between atoms: _33  and  _34
REMARK   16  A    between atoms: _33  and  _36
REMARK   17  A    between atoms: _38  and  _40
REMARK   18  A    between atoms: _40  and  _41
REMARK   19  A    between atoms: _40  and  _43
REMARK   20  A    between atoms: _43  and  _44
REMARK   21  A    between atoms: _44  and  _45
REMARK   22  A    between atoms: _48  and  _50
REMARK   23  A    between atoms: _50  and  _51
REMARK   24  A    between atoms: _54  and  _56
REMARK   25  A    between atoms: _56  and  _57
REMARK   26  A    between atoms: _56  and  _59
REMARK   27  A    between atoms: _59  and  _60
REMARK   28  A    between atoms: _63  and  _65
REMARK   29  A    between atoms: _65  and  _66
REMARK   30  A    between atoms: _68  and  _70
REMARK   31  A    between atoms: _70  and  _71
REMARK   32  A    between atoms: _70  and  _73
REMARK   33  A    between atoms: _73  and  _74
REMARK   34  A    between atoms: _79  and  _80
REMARK   35  A    between atoms: _82  and  _84
REMARK   36  A    between atoms: _84  and  _85
REMARK   37  A    between atoms: _84  and  _87
REMARK   38  A    between atoms: _87  and  _88
REMARK   39  A    between atoms: _91  and  _93
REMARK   40  A    between atoms: _93  and  _94
REMARK   41  A    between atoms: _93  and  _96
REMARK   42  A    between atoms: _96  and  _97
REMARK   43  A    between atoms: _103  and  _105
REMARK   44  A    between atoms: _105  and  _106
REMARK   45  A    between atoms: _105  and  _108
REMARK   46  A    between atoms: _108  and  _109
REMARK   47  A    between atoms: _114  and  _116
REMARK   48  A    between atoms: _116  and  _117
REMARK   49  A    between atoms: _116  and  _119
REMARK   50  A    between atoms: _122  and  _124
REMARK   51  A    between atoms: _124  and  _125
REMARK   52  A    between atoms: _127  and  _129
REMARK   53  A    between atoms: _129  and  _130
REMARK   54  A    between atoms: _133  and  _135
REMARK   55  A    between atoms: _135  and  _136
REMARK   56  A    between atoms: _135  and  _138
REMARK   57  A    between atoms: _138  and  _139
REMARK   58  A    between atoms: _139  and  _140
REMARK   59  A    between atoms: _142  and  _144
REMARK   60  A    between atoms: _144  and  _145
REMARK   61  A    between atoms: _144  and  _147
REMARK   62  A    between atoms: _147  and  _148
REMARK   63  A    between atoms: _148  and  _149
REMARK   64  A    between atoms: _152  and  _154
REMARK   65  A    between atoms: _154  and  _155
REMARK   66  A    between atoms: _154  and  _157
REMARK   67  A    between atoms: _157  and  _158
REMARK   68  A    between atoms: _163  and  _165
REMARK   69  A    between atoms: _165  and  _166
REMARK   70  A    between atoms: _165  and  _168
REMARK   71  A    between atoms: _168  and  _169
REMARK   72  A    between atoms: _172  and  _174
REMARK   73  A    between atoms: _174  and  _175
REMARK   74  A    between atoms: _174  and  _177
REMARK   75  A    between atoms: _177  and  _178
REMARK   76  A    between atoms: _183  and  _185
REMARK   77  A    between atoms: _185  and  _186
REMARK   78  A    between atoms: _185  and  _188
REMARK   79  A    between atoms: _188  and  _189
REMARK   80  A    between atoms: _189  and  _190
REMARK   81  A    between atoms: _190  and  _191
REMARK   82  A    between atoms: _200  and  _202
REMARK   83  A    between atoms: _202  and  _203
REMARK   84  A    between atoms: _202  and  _205
REMARK   85  A    between atoms: _208  and  _210
REMARK   86  A    between atoms: _210  and  _211
REMARK   87  A    between atoms: _210  and  _213
REMARK   88  A    between atoms: _213  and  _214
REMARK   89  A    between atoms: _218  and  ZN_473
REMARK   90  A    between atoms: _219  and  _221
REMARK   91  A    between atoms: _221  and  _222
REMARK   92  A    between atoms: _221  and  _224
REMARK   93  A    between atoms: _224  and  _225
REMARK   94  A    between atoms: _225  and  _226
REMARK   95  A    between atoms: _229  and  _231
REMARK   96  A    between atoms: _231  and  _232
REMARK   97  A    between atoms: _231  and  _234
REMARK   98  A    between atoms: _234  and  _235
REMARK   99  A    between atoms: _240  and  _241
REMARK  100  A    between atoms: _243  and  _245
REMARK  101  A    between atoms: _245  and  _246
REMARK  102  A    between atoms: _245  and  _248
REMARK  103  A    between atoms: _248  and  _249
REMARK  104  A    between atoms: _253  and  ZN_473
REMARK  105  A    between atoms: _254  and  _256
REMARK  106  A    between atoms: _256  and  _257
REMARK  107  A    between atoms: _256  and  _259
REMARK  108  A    between atoms: _259  and  _260
REMARK  109  A    between atoms: _263  and  _265
REMARK  110  A    between atoms: _265  and  _266
REMARK  111  A    between atoms: _265  and  _268
REMARK  112  A    between atoms: _268  and  _269
REMARK  113  A    between atoms: _274  and  _276
REMARK  114  A    between atoms: _276  and  _277
REMARK  115  A    between atoms: _276  and  _279
REMARK  116  A    between atoms: _279  and  _280
REMARK  117  A    between atoms: _290  and  _292
REMARK  118  A    between atoms: _292  and  _293
REMARK  119  A    between atoms: _292  and  _295
REMARK  120  A    between atoms: _295  and  _296
REMARK  121  A    between atoms: _299  and  _301
REMARK  122  A    between atoms: _301  and  _302
REMARK  123  A    between atoms: _301  and  _304
REMARK  124  A    between atoms: _304  and  _305
REMARK  125  A    between atoms: _305  and  _306
REMARK  126  A    between atoms: _306  and  _307
REMARK  127  A    between atoms: _307  and  _308
REMARK  128  A    between atoms: _312  and  _314
REMARK  129  A    between atoms: _314  and  _315
REMARK  130  A    between atoms: _314  and  _317
REMARK  131  A    between atoms: _317  and  _318
REMARK  132  A    between atoms: _318  and  _319
REMARK  133  A    between atoms: _319  and  _320
REMARK  134  A    between atoms: _320  and  ZN_473
REMARK  135  A    between atoms: _322  and  _324
REMARK  136  A    between atoms: _324  and  _325
REMARK  137  A    between atoms: _327  and  _329
REMARK  138  A    between atoms: _329  and  _330
REMARK  139  A    between atoms: _329  and  _332
REMARK  140  A    between atoms: _332  and  _333
REMARK  141  A    between atoms: _336  and  _338
REMARK  142  A    between atoms: _338  and  _339
REMARK  143  A    between atoms: _338  and  _341
REMARK  144  A    between atoms: _344  and  _346
REMARK  145  A    between atoms: _346  and  _347
REMARK  146  A    between atoms: _346  and  _349
REMARK  147  A    between atoms: _349  and  _350
REMARK  148  A    between atoms: _350  and  _351
REMARK  149  A    between atoms: _354  and  _356
REMARK  150  A    between atoms: _356  and  _357
REMARK  151  A    between atoms: _356  and  _359
REMARK  152  A    between atoms: _359  and  _360
REMARK  153  A    between atoms: _360  and  _361
REMARK  154  A    between atoms: _363  and  _365
REMARK  155  A    between atoms: _365  and  _366
REMARK  156  A    between atoms: _365  and  _368
REMARK  157  A    between atoms: _368  and  _369
REMARK  158  A    between atoms: _369  and  _370
REMARK  159  A    between atoms: _373  and  _375
REMARK  160  A    between atoms: _375  and  _376
REMARK  161  A    between atoms: _375  and  _378
REMARK  162  A    between atoms: _378  and  _379
REMARK  163  A    between atoms: _384  and  _386
REMARK  164  A    between atoms: _386  and  _387
REMARK  165  A    between atoms: _386  and  _389
REMARK  166  A    between atoms: _389  and  _390
REMARK  167  A    between atoms: _396  and  _398
REMARK  168  A    between atoms: _398  and  _399
REMARK  169  A    between atoms: _398  and  _401
REMARK  170  A    between atoms: _401  and  _402
REMARK  171  A    between atoms: _407  and  _408
REMARK  172  A    between atoms: _410  and  _412
REMARK  173  A    between atoms: _412  and  _413
REMARK  174  A    between atoms: _412  and  _415
REMARK  175  A    between atoms: _415  and  _416
REMARK  176  A    between atoms: _421  and  _422
REMARK  177  A    between atoms: _424  and  _426
REMARK  178  A    between atoms: _426  and  _427
REMARK  179  A    between atoms: _426  and  _429
REMARK  180  A    between atoms: _430  and  _431
REMARK  181  A    between atoms: _431  and  _432
REMARK  182  A    between atoms: _441  and  _443
REMARK  183  A    between atoms: _443  and  _444
REMARK  184  A    between atoms: _443  and  _446
REMARK  185  A    between atoms: _446  and  _447
REMARK  186  A    between atoms: _447  and  _448
REMARK  187  A    between atoms: _450  and  _452
REMARK  188  A    between atoms: _452  and  _453
REMARK  189  A    between atoms: _452  and  _455
REMARK  190  A    between atoms: _455  and  _456
REMARK  191  A    between atoms: _456  and  _457
REMARK  192  A    between atoms: _462  and  _464
REMARK  193  A    between atoms: _464  and  _465
REMARK  194  A    between atoms: _464  and  _467
REMARK  195  A    between atoms: _467  and  _468
REMARK                            x       y       z     vdW  Elec       q    Type
REMARK                         _______ _______ _______ _____ _____    ______ ____
ROOT
ATOM      1  CA  ASN A   3      10.274   4.375  22.002  0.00  0.00    +0.158 C 
ENDROOT
BRANCH   1   3
ATOM      2  C   GLU A   2      10.563   6.787  22.148  0.00  0.00    +0.241 C 
ATOM      3  N   ASN A   3       9.814   5.701  22.393  0.00  0.00    -0.297 N 
ATOM      4  H   ASN A   3       8.895   5.807  22.867  0.00  0.00    +0.150 HD
ATOM      5  O   GLU A   2      11.694   6.732  21.655  0.00  0.00    -0.273 OA
BRANCH   2   6
ATOM      6  CA  GLU A   2       9.988   8.163  22.509  0.00  0.00    +0.149 C 
BRANCH   6   8
ATOM      7  C   MET A   1       7.708   7.944  21.788  0.00  0.00    +0.238 C 
ATOM      8  N   GLU A   2       8.560   8.109  22.797  0.00  0.00    -0.297 N 
ATOM      9  H   GLU A   2       8.213   8.198  23.773  0.00  0.00    +0.150 HD
ATOM     10  O   MET A   1       8.083   7.866  20.634  0.00  0.00    -0.274 OA
BRANCH   7  11
ATOM     11  CA  MET A   1       6.229   7.891  22.118  0.00  0.00    +0.146 C 
BRANCH  11  12
ATOM     12  N   MET A   1       6.005   7.453  23.518  0.00  0.00    -0.238 NA
ATOM     13  H   MET A   1       5.529   8.102  24.176  0.00  0.00    +0.142 HD
ENDBRANCH  11  12
BRANCH  11  14
ATOM     14  CB  MET A   1       5.655   9.311  21.862  0.00  0.00    +0.038 C 
BRANCH  14  15
ATOM     15  CG  MET A   1       4.336   9.346  21.173  0.00  0.00    +0.060 C 
BRANCH  15  16
ATOM     16  SD  MET A   1       4.154   8.043  19.934  0.00  0.00    -0.139 S 
ATOM     17  CE  MET A   1       5.175   8.673  18.573  0.00  0.00    +0.069 C 
ENDBRANCH  15  16
ENDBRANCH  14  15
ENDBRANCH  11  14
ENDBRANCH   7  11
ENDBRANCH   6   8
BRANCH   6  18
ATOM     18  CB  GLU A   2      10.783   8.804  23.660  0.00  0.00    +0.041 C 
BRANCH  18  19
ATOM     19  CG  GLU A   2      10.775  10.366  23.659  0.00  0.00    +0.116 C 
BRANCH  19  20
ATOM     20  CD  GLU A   2      11.457  10.977  24.916  0.00  0.00    +0.365 C 
ATOM     21  OE2 GLU A   2      11.532  10.282  25.961  0.00  0.00    -0.246 OA
ATOM     22  OE1 GLU A   2      11.904  12.159  24.859  0.00  0.00    -0.246 OA
ENDBRANCH  19  20
ENDBRANCH  18  19
ENDBRANCH   6  18
ENDBRANCH   2   6
ENDBRANCH   1   3
BRANCH   1  23
ATOM     23  C   ASN A   3       9.531   3.818  20.765  0.00  0.00    +0.241 C 
ATOM     24  O   ASN A   3       9.769   2.711  20.354  0.00  0.00    -0.273 OA
ATOM     25  N   PHE A   4       8.639   4.610  20.182  0.00  0.00    -0.297 N 
ATOM     26  H   PHE A   4       8.504   5.566  20.570  0.00  0.00    +0.150 HD
BRANCH  25  27
ATOM     27  CA  PHE A   4       7.828   4.212  19.016  0.00  0.00    +0.153 C 
BRANCH  27  28
ATOM     28  C   PHE A   4       8.561   4.399  17.681  0.00  0.00    +0.241 C 
ATOM     29  N   TYR A   5       9.713   5.051  17.712  0.00  0.00    -0.298 N 
ATOM     30  H   TYR A   5      10.105   5.374  18.619  0.00  0.00    +0.150 HD
ATOM     31  O   PHE A   4       8.095   3.991  16.625  0.00  0.00    -0.273 OA
BRANCH  29  32
ATOM     32  CA  TYR A   5      10.422   5.311  16.485  0.00  0.00    +0.141 C 
BRANCH  32  33
ATOM     33  C   TYR A   5      11.407   4.158  16.213  0.00  0.00    +0.227 C 
ATOM     34  O   TYR A   5      12.565   4.255  16.593  0.00  0.00    -0.286 OA
ENDBRANCH  32  33
BRANCH  32  35
ATOM     35  CB  TYR A   5      11.146   6.682  16.594  0.00  0.00    +0.054 C 
BRANCH  35  36
ATOM     36  CG  TYR A   5      10.161   7.858  16.486  0.00  0.00    -0.020 A 
ATOM     37  CD2 TYR A   5       9.341   8.197  17.572  0.00  0.00    -0.001 A 
ATOM     38  CE2 TYR A   5       8.425   9.235  17.507  0.00  0.00    +0.036 A 
ATOM     39  CZ  TYR A   5       8.255   9.953  16.342  0.00  0.00    +0.134 A 
ATOM     40  CE1 TYR A   5       9.034   9.650  15.204  0.00  0.00    +0.036 A 
ATOM     41  CD1 TYR A   5       9.985   8.555  15.285  0.00  0.00    -0.001 A 
BRANCH  39  42
ATOM     42  OH  TYR A   5       7.298  10.966  16.306  0.00  0.00    -0.506 OA
ATOM     43  HH  TYR A   5       7.296  11.385  15.409  0.00  0.00    +0.292 HD
ENDBRANCH  39  42
ENDBRANCH  35  36
ENDBRANCH  32  35
ENDBRANCH  29  32
ENDBRANCH  27  28
BRANCH  27  44
ATOM     44  CB  PHE A   4       6.644   5.189  19.024  0.00  0.00    +0.055 C 
BRANCH  44  45
ATOM     45  CG  PHE A   4       5.338   4.624  18.548  0.00  0.00    -0.020 A 
ATOM     46  CD2 PHE A   4       4.631   3.708  19.328  0.00  0.00    -0.004 A 
ATOM     47  CE2 PHE A   4       3.387   3.220  18.909  0.00  0.00    -0.000 A 
ATOM     48  CZ  PHE A   4       2.842   3.676  17.724  0.00  0.00    -0.000 A 
ATOM     49  CE1 PHE A   4       3.547   4.617  16.936  0.00  0.00    -0.000 A 
ATOM     50  CD1 PHE A   4       4.764   5.097  17.357  0.00  0.00    -0.004 A 
ENDBRANCH  44  45
ENDBRANCH  27  44
ENDBRANCH  25  27
ENDBRANCH   1  23
BRANCH   1  51
ATOM     51  CB  ASN A   3      10.164   3.356  23.167  0.00  0.00    +0.114 C 
BRANCH  51  52
ATOM     52  CG  ASN A   3      11.000   3.738  24.414  0.00  0.00    +0.222 C 
ATOM     53  ND2 ASN A   3      10.504   3.336  25.616  0.00  0.00    -0.329 N 
ATOM     54 HD21 ASN A   3      11.006   3.580  26.494  0.00  0.00    +0.145 HD
ATOM     55 HD22 ASN A   3       9.623   2.785  25.657  0.00  0.00    +0.145 HD
ATOM     56  OD1 ASN A   3      12.052   4.400  24.308  0.00  0.00    -0.275 OA
ENDBRANCH  51  52
ENDBRANCH   1  51
TORSDOF 23
REMARK  Name = ../refined-set-2016/4k5p/4k5p_pocket.pdb
REMARK  195 active torsions:
REMARK  status: ('A' for Active; 'I' for Inactive)
REMARK    1  A    between atoms: _1  and  _3
REMARK    2  A    between atoms: _3  and  _4
REMARK    3  A    between atoms: _3  and  _6
REMARK    4  A    between atoms: _6  and  _7
REMARK    5  A    between atoms: _10  and  _12
REMARK    6  A    between atoms: _12  and  _13
REMARK    7  A    between atoms: _12  and  _15
REMARK    8  A    between atoms: _15  and  _16
REMARK    9  A    between atoms: _19  and  _21
REMARK   10  A    between atoms: _21  and  _22
REMARK   11  A    between atoms: _21  and  _24
REMARK   12  A    between atoms: _24  and  _25
REMARK   13  A    between atoms: _25  and  _26
REMARK   14  A    between atoms: _31  and  _33
REMARK   15  A    between atoms: _33  and  _34
REMARK   16  A    between atoms: _33  and  _36
REMARK   17  A    between atoms: _38  and  _40
REMARK   18  A    between atoms: _40  and  _41
REMARK   19  A    between atoms: _40  and  _43
REMARK   20  A    between atoms: _43  and  _44
REMARK   21  A    between atoms: _44  and  _45
REMARK   22  A    between atoms: _48  and  _50
REMARK   23  A    between atoms: _50  and  _51
REMARK   24  A    between atoms: _54  and  _56
REMARK   25  A    between atoms: _56  and  _57
REMARK   26  A    between atoms: _56  and  _59
REMARK   27  A    between atoms: _59  and  _60
REMARK   28  A    between atoms: _63  and  _65
REMARK   29  A    between atoms: _65  and  _66
REMARK   30  A    between atoms: _68  and  _70
REMARK   31  A    between atoms: _70  and  _71
REMARK   32  A    between atoms: _70  and  _73
REMARK   33  A    between atoms: _73  and  _74
REMARK   34  A    between atoms: _79  and  _80
REMARK   35  A    between atoms: _82  and  _84
REMARK   36  A    between atoms: _84  and  _85
REMARK   37  A    between atoms: _84  and  _87
REMARK   38  A    between atoms: _87  and  _88
REMARK   39  A    between atoms: _91  and  _93
REMARK   40  A    between atoms: _93  and  _94
REMARK   41  A    between atoms: _93  and  _96
REMARK   42  A    between atoms: _96  and  _97
REMARK   43  A    between atoms: _103  and  _105
REMARK   44  A    between atoms: _105  and  _106
REMARK   45  A    between atoms: _105  and  _108
REMARK   46  A    between atoms: _108  and  _109
REMARK   47  A    between atoms: _114  and  _116
REMARK   48  A    between atoms: _116  and  _117
REMARK   49  A    between atoms: _116  and  _119
REMARK   50  A    between atoms: _122  and  _124
REMARK   51  A    between atoms: _124  and  _125
REMARK   52  A    between atoms: _127  and  _129
REMARK   53  A    between atoms: _129  and  _130
REMARK   54  A    between atoms: _133  and  _135
REMARK   55  A    between atoms: _135  and  _136
REMARK   56  A    between atoms: _135  and  _138
REMARK   57  A    between atoms: _138  and  _139
REMARK   58  A    between atoms: _139  and  _140
REMARK   59  A    between atoms: _142  and  _144
REMARK   60  A    between atoms: _144  and  _145
REMARK   61  A    between atoms: _144  and  _147
REMARK   62  A    between atoms: _147  and  _148
REMARK   63  A    between atoms: _148  and  _149
REMARK   64  A    between atoms: _152  and  _154
REMARK   65  A    between atoms: _154  and  _155
REMARK   66  A    between atoms: _154  and  _157
REMARK   67  A    between atoms: _157  and  _158
REMARK   68  A    between atoms: _163  and  _165
REMARK   69  A    between atoms: _165  and  _166
REMARK   70  A    between atoms: _165  and  _168
REMARK   71  A    between atoms: _168  and  _169
REMARK   72  A    between atoms: _172  and  _174
REMARK   73  A    between atoms: _174  and  _175
REMARK   74  A    between atoms: _174  and  _177
REMARK   75  A    between atoms: _177  and  _178
REMARK   76  A    between atoms: _183  and  _185
REMARK   77  A    between atoms: _185  and  _186
REMARK   78  A    between atoms: _185  and  _188
REMARK   79  A    between atoms: _188  and  _189
REMARK   80  A    between atoms: _189  and  _190
REMARK   81  A    between atoms: _190  and  _191
REMARK   82  A    between atoms: _200  and  _202
REMARK   83  A    between atoms: _202  and  _203
REMARK   84  A    between atoms: _202  and  _205
REMARK   85  A    between atoms: _208  and  _210
REMARK   86  A    between atoms: _210  and  _211
REMARK   87  A    between atoms: _210  and  _213
REMARK   88  A    between atoms: _213  and  _214
REMARK   89  A    between atoms: _218  and  ZN_473
REMARK   90  A    between atoms: _219  and  _221
REMARK   91  A    between atoms: _221  and  _222
REMARK   92  A    between atoms: _221  and  _224
REMARK   93  A    between atoms: _224  and  _225
REMARK   94  A    between atoms: _225  and  _226
REMARK   95  A    between atoms: _229  and  _231
REMARK   96  A    between atoms: _231  and  _232
REMARK   97  A    between atoms: _231  and  _234
REMARK   98  A    between atoms: _234  and  _235
REMARK   99  A    between atoms: _240  and  _241
REMARK  100  A    between atoms: _243  and  _245
REMARK  101  A    between atoms: _245  and  _246
REMARK  102  A    between atoms: _245  and  _248
REMARK  103  A    between atoms: _248  and  _249
REMARK  104  A    between atoms: _253  and  ZN_473
REMARK  105  A    between atoms: _254  and  _256
REMARK  106  A    between atoms: _256  and  _257
REMARK  107  A    between atoms: _256  and  _259
REMARK  108  A    between atoms: _259  and  _260
REMARK  109  A    between atoms: _263  and  _265
REMARK  110  A    between atoms: _265  and  _266
REMARK  111  A    between atoms: _265  and  _268
REMARK  112  A    between atoms: _268  and  _269
REMARK  113  A    between atoms: _274  and  _276
REMARK  114  A    between atoms: _276  and  _277
REMARK  115  A    between atoms: _276  and  _279
REMARK  116  A    between atoms: _279  and  _280
REMARK  117  A    between atoms: _290  and  _292
REMARK  118  A    between atoms: _292  and  _293
REMARK  119  A    between atoms: _292  and  _295
REMARK  120  A    between atoms: _295  and  _296
REMARK  121  A    between atoms: _299  and  _301
REMARK  122  A    between atoms: _301  and  _302
REMARK  123  A    between atoms: _301  and  _304
REMARK  124  A    between atoms: _304  and  _305
REMARK  125  A    between atoms: _305  and  _306
REMARK  126  A    between atoms: _306  and  _307
REMARK  127  A    between atoms: _307  and  _308
REMARK  128  A    between atoms: _312  and  _314
REMARK  129  A    between atoms: _314  and  _315
REMARK  130  A    between atoms: _314  and  _317
REMARK  131  A    between atoms: _317  and  _318
REMARK  132  A    between atoms: _318  and  _319
REMARK  133  A    between atoms: _319  and  _320
REMARK  134  A    between atoms: _320  and  ZN_473
REMARK  135  A    between atoms: _322  and  _324
REMARK  136  A    between atoms: _324  and  _325
REMARK  137  A    between atoms: _327  and  _329
REMARK  138  A    between atoms: _329  and  _330
REMARK  139  A    between atoms: _329  and  _332
REMARK  140  A    between atoms: _332  and  _333
REMARK  141  A    between atoms: _336  and  _338
REMARK  142  A    between atoms: _338  and  _339
REMARK  143  A    between atoms: _338  and  _341
REMARK  144  A    between atoms: _344  and  _346
REMARK  145  A    between atoms: _346  and  _347
REMARK  146  A    between atoms: _346  and  _349
REMARK  147  A    between atoms: _349  and  _350
REMARK  148  A    between atoms: _350  and  _351
REMARK  149  A    between atoms: _354  and  _356
REMARK  150  A    between atoms: _356  and  _357
REMARK  151  A    between atoms: _356  and  _359
REMARK  152  A    between atoms: _359  and  _360
REMARK  153  A    between atoms: _360  and  _361
REMARK  154  A    between atoms: _363  and  _365
REMARK  155  A    between atoms: _365  and  _366
REMARK  156  A    between atoms: _365  and  _368
REMARK  157  A    between atoms: _368  and  _369
REMARK  158  A    between atoms: _369  and  _370
REMARK  159  A    between atoms: _373  and  _375
REMARK  160  A    between atoms: _375  and  _376
REMARK  161  A    between atoms: _375  and  _378
REMARK  162  A    between atoms: _378  and  _379
REMARK  163  A    between atoms: _384  and  _386
REMARK  164  A    between atoms: _386  and  _387
REMARK  165  A    between atoms: _386  and  _389
REMARK  166  A    between atoms: _389  and  _390
REMARK  167  A    between atoms: _396  and  _398
REMARK  168  A    between atoms: _398  and  _399
REMARK  169  A    between atoms: _398  and  _401
REMARK  170  A    between atoms: _401  and  _402
REMARK  171  A    between atoms: _407  and  _408
REMARK  172  A    between atoms: _410  and  _412
REMARK  173  A    between atoms: _412  and  _413
REMARK  174  A    between atoms: _412  and  _415
REMARK  175  A    between atoms: _415  and  _416
REMARK  176  A    between atoms: _421  and  _422
REMARK  177  A    between atoms: _424  and  _426
REMARK  178  A    between atoms: _426  and  _427
REMARK  179  A    between atoms: _426  and  _429
REMARK  180  A    between atoms: _430  and  _431
REMARK  181  A    between atoms: _431  and  _432
REMARK  182  A    between atoms: _441  and  _443
REMARK  183  A    between atoms: _443  and  _444
REMARK  184  A    between atoms: _443  and  _446
REMARK  185  A    between atoms: _446  and  _447
REMARK  186  A    between atoms: _447  and  _448
REMARK  187  A    between atoms: _450  and  _452
REMARK  188  A    between atoms: _452  and  _453
REMARK  189  A    between atoms: _452  and  _455
REMARK  190  A    between atoms: _455  and  _456
REMARK  191  A    between atoms: _456  and  _457
REMARK  192  A    between atoms: _462  and  _464
REMARK  193  A    between atoms: _464  and  _465
REMARK  194  A    between atoms: _464  and  _467
REMARK  195  A    between atoms: _467  and  _468
REMARK                            x       y       z     vdW  Elec       q    Type
REMARK                         _______ _______ _______ _____ _____    ______ ____
ROOT
ATOM      1  CG  TYR A   1      11.780   4.864  10.685  0.00  0.00    -0.020 A 
ATOM      2  CD2 TYR A   1      10.955   5.043  11.838  0.00  0.00    -0.001 A 
ATOM      3  CE2 TYR A   1      10.830   6.335  12.434  0.00  0.00    +0.036 A 
ATOM      4  CZ  TYR A   1      11.532   7.411  11.859  0.00  0.00    +0.134 A 
ATOM      5  CE1 TYR A   1      12.294   7.255  10.699  0.00  0.00    +0.036 A 
ATOM      6  CD1 TYR A   1      12.468   5.983  10.131  0.00  0.00    -0.001 A 
ENDROOT
BRANCH   4   7
ATOM      7  OH  TYR A   1      11.461   8.736  12.403  0.00  0.00    -0.506 OA
ATOM      8  HH  TYR A   1      12.021   9.345  11.860  0.00  0.00    +0.292 HD
ENDBRANCH   4   7
BRANCH   1   9
ATOM      9  CB  TYR A   1      11.926   3.526  10.041  0.00  0.00    +0.051 C 
BRANCH   9  10
ATOM     10  CA  TYR A   1      10.589   2.945   9.574  0.00  0.00    +0.137 C 
BRANCH  10  11
ATOM     11  N   TYR A   1       9.900   2.322  10.694  0.00  0.00    -0.239 NA
ATOM     12  H   TYR A   1      10.422   2.040  11.548  0.00  0.00    +0.142 HD
ENDBRANCH  10  11
BRANCH  10  13
ATOM     13  C   TYR A   1      10.905   2.019   8.407  0.00  0.00    +0.224 C 
ATOM     14  O   TYR A   1      10.643   2.371   7.265  0.00  0.00    -0.287 OA
ENDBRANCH  10  13
ENDBRANCH   9  10
ENDBRANCH   1   9
TORSDOF 5
REMARK  Name = ../refined-set-2016/4k5p/4k5p_pocket.pdb
REMARK  195 active torsions:
REMARK  status: ('A' for Active; 'I' for Inactive)
REMARK    1  A    between atoms: _1  and  _3
REMARK    2  A    between atoms: _3  and  _4
REMARK    3  A    between atoms: _3  and  _6
REMARK    4  A    between atoms: _6  and  _7
REMARK    5  A    between atoms: _10  and  _12
REMARK    6  A    between atoms: _12  and  _13
REMARK    7  A    between atoms: _12  and  _15
REMARK    8  A    between atoms: _15  and  _16
REMARK    9  A    between atoms: _19  and  _21
REMARK   10  A    between atoms: _21  and  _22
REMARK   11  A    between atoms: _21  and  _24
REMARK   12  A    between atoms: _24  and  _25
REMARK   13  A    between atoms: _25  and  _26
REMARK   14  A    between atoms: _31  and  _33
REMARK   15  A    between atoms: _33  and  _34
REMARK   16  A    between atoms: _33  and  _36
REMARK   17  A    between atoms: _38  and  _40
REMARK   18  A    between atoms: _40  and  _41
REMARK   19  A    between atoms: _40  and  _43
REMARK   20  A    between atoms: _43  and  _44
REMARK   21  A    between atoms: _44  and  _45
REMARK   22  A    between atoms: _48  and  _50
REMARK   23  A    between atoms: _50  and  _51
REMARK   24  A    between atoms: _54  and  _56
REMARK   25  A    between atoms: _56  and  _57
REMARK   26  A    between atoms: _56  and  _59
REMARK   27  A    between atoms: _59  and  _60
REMARK   28  A    between atoms: _63  and  _65
REMARK   29  A    between atoms: _65  and  _66
REMARK   30  A    between atoms: _68  and  _70
REMARK   31  A    between atoms: _70  and  _71
REMARK   32  A    between atoms: _70  and  _73
REMARK   33  A    between atoms: _73  and  _74
REMARK   34  A    between atoms: _79  and  _80
REMARK   35  A    between atoms: _82  and  _84
REMARK   36  A    between atoms: _84  and  _85
REMARK   37  A    between atoms: _84  and  _87
REMARK   38  A    between atoms: _87  and  _88
REMARK   39  A    between atoms: _91  and  _93
REMARK   40  A    between atoms: _93  and  _94
REMARK   41  A    between atoms: _93  and  _96
REMARK   42  A    between atoms: _96  and  _97
REMARK   43  A    between atoms: _103  and  _105
REMARK   44  A    between atoms: _105  and  _106
REMARK   45  A    between atoms: _105  and  _108
REMARK   46  A    between atoms: _108  and  _109
REMARK   47  A    between atoms: _114  and  _116
REMARK   48  A    between atoms: _116  and  _117
REMARK   49  A    between atoms: _116  and  _119
REMARK   50  A    between atoms: _122  and  _124
REMARK   51  A    between atoms: _124  and  _125
REMARK   52  A    between atoms: _127  and  _129
REMARK   53  A    between atoms: _129  and  _130
REMARK   54  A    between atoms: _133  and  _135
REMARK   55  A    between atoms: _135  and  _136
REMARK   56  A    between atoms: _135  and  _138
REMARK   57  A    between atoms: _138  and  _139
REMARK   58  A    between atoms: _139  and  _140
REMARK   59  A    between atoms: _142  and  _144
REMARK   60  A    between atoms: _144  and  _145
REMARK   61  A    between atoms: _144  and  _147
REMARK   62  A    between atoms: _147  and  _148
REMARK   63  A    between atoms: _148  and  _149
REMARK   64  A    between atoms: _152  and  _154
REMARK   65  A    between atoms: _154  and  _155
REMARK   66  A    between atoms: _154  and  _157
REMARK   67  A    between atoms: _157  and  _158
REMARK   68  A    between atoms: _163  and  _165
REMARK   69  A    between atoms: _165  and  _166
REMARK   70  A    between atoms: _165  and  _168
REMARK   71  A    between atoms: _168  and  _169
REMARK   72  A    between atoms: _172  and  _174
REMARK   73  A    between atoms: _174  and  _175
REMARK   74  A    between atoms: _174  and  _177
REMARK   75  A    between atoms: _177  and  _178
REMARK   76  A    between atoms: _183  and  _185
REMARK   77  A    between atoms: _185  and  _186
REMARK   78  A    between atoms: _185  and  _188
REMARK   79  A    between atoms: _188  and  _189
REMARK   80  A    between atoms: _189  and  _190
REMARK   81  A    between atoms: _190  and  _191
REMARK   82  A    between atoms: _200  and  _202
REMARK   83  A    between atoms: _202  and  _203
REMARK   84  A    between atoms: _202  and  _205
REMARK   85  A    between atoms: _208  and  _210
REMARK   86  A    between atoms: _210  and  _211
REMARK   87  A    between atoms: _210  and  _213
REMARK   88  A    between atoms: _213  and  _214
REMARK   89  A    between atoms: _218  and  ZN_473
REMARK   90  A    between atoms: _219  and  _221
REMARK   91  A    between atoms: _221  and  _222
REMARK   92  A    between atoms: _221  and  _224
REMARK   93  A    between atoms: _224  and  _225
REMARK   94  A    between atoms: _225  and  _226
REMARK   95  A    between atoms: _229  and  _231
REMARK   96  A    between atoms: _231  and  _232
REMARK   97  A    between atoms: _231  and  _234
REMARK   98  A    between atoms: _234  and  _235
REMARK   99  A    between atoms: _240  and  _241
REMARK  100  A    between atoms: _243  and  _245
REMARK  101  A    between atoms: _245  and  _246
REMARK  102  A    between atoms: _245  and  _248
REMARK  103  A    between atoms: _248  and  _249
REMARK  104  A    between atoms: _253  and  ZN_473
REMARK  105  A    between atoms: _254  and  _256
REMARK  106  A    between atoms: _256  and  _257
REMARK  107  A    between atoms: _256  and  _259
REMARK  108  A    between atoms: _259  and  _260
REMARK  109  A    between atoms: _263  and  _265
REMARK  110  A    between atoms: _265  and  _266
REMARK  111  A    between atoms: _265  and  _268
REMARK  112  A    between atoms: _268  and  _269
REMARK  113  A    between atoms: _274  and  _276
REMARK  114  A    between atoms: _276  and  _277
REMARK  115  A    between atoms: _276  and  _279
REMARK  116  A    between atoms: _279  and  _280
REMARK  117  A    between atoms: _290  and  _292
REMARK  118  A    between atoms: _292  and  _293
REMARK  119  A    between atoms: _292  and  _295
REMARK  120  A    between atoms: _295  and  _296
REMARK  121  A    between atoms: _299  and  _301
REMARK  122  A    between atoms: _301  and  _302
REMARK  123  A    between atoms: _301  and  _304
REMARK  124  A    between atoms: _304  and  _305
REMARK  125  A    between atoms: _305  and  _306
REMARK  126  A    between atoms: _306  and  _307
REMARK  127  A    between atoms: _307  and  _308
REMARK  128  A    between atoms: _312  and  _314
REMARK  129  A    between atoms: _314  and  _315
REMARK  130  A    between atoms: _314  and  _317
REMARK  131  A    between atoms: _317  and  _318
REMARK  132  A    between atoms: _318  and  _319
REMARK  133  A    between atoms: _319  and  _320
REMARK  134  A    between atoms: _320  and  ZN_473
REMARK  135  A    between atoms: _322  and  _324
REMARK  136  A    between atoms: _324  and  _325
REMARK  137  A    between atoms: _327  and  _329
REMARK  138  A    between atoms: _329  and  _330
REMARK  139  A    between atoms: _329  and  _332
REMARK  140  A    between atoms: _332  and  _333
REMARK  141  A    between atoms: _336  and  _338
REMARK  142  A    between atoms: _338  and  _339
REMARK  143  A    between atoms: _338  and  _341
REMARK  144  A    between atoms: _344  and  _346
REMARK  145  A    between atoms: _346  and  _347
REMARK  146  A    between atoms: _346  and  _349
REMARK  147  A    between atoms: _349  and  _350
REMARK  148  A    between atoms: _350  and  _351
REMARK  149  A    between atoms: _354  and  _356
REMARK  150  A    between atoms: _356  and  _357
REMARK  151  A    between atoms: _356  and  _359
REMARK  152  A    between atoms: _359  and  _360
REMARK  153  A    between atoms: _360  and  _361
REMARK  154  A    between atoms: _363  and  _365
REMARK  155  A    between atoms: _365  and  _366
REMARK  156  A    between atoms: _365  and  _368
REMARK  157  A    between atoms: _368  and  _369
REMARK  158  A    between atoms: _369  and  _370
REMARK  159  A    between atoms: _373  and  _375
REMARK  160  A    between atoms: _375  and  _376
REMARK  161  A    between atoms: _375  and  _378
REMARK  162  A    between atoms: _378  and  _379
REMARK  163  A    between atoms: _384  and  _386
REMARK  164  A    between atoms: _386  and  _387
REMARK  165  A    between atoms: _386  and  _389
REMARK  166  A    between atoms: _389  and  _390
REMARK  167  A    between atoms: _396  and  _398
REMARK  168  A    between atoms: _398  and  _399
REMARK  169  A    between atoms: _398  and  _401
REMARK  170  A    between atoms: _401  and  _402
REMARK  171  A    between atoms: _407  and  _408
REMARK  172  A    between atoms: _410  and  _412
REMARK  173  A    between atoms: _412  and  _413
REMARK  174  A    between atoms: _412  and  _415
REMARK  175  A    between atoms: _415  and  _416
REMARK  176  A    between atoms: _421  and  _422
REMARK  177  A    between atoms: _424  and  _426
REMARK  178  A    between atoms: _426  and  _427
REMARK  179  A    between atoms: _426  and  _429
REMARK  180  A    between atoms: _430  and  _431
REMARK  181  A    between atoms: _431  and  _432
REMARK  182  A    between atoms: _441  and  _443
REMARK  183  A    between atoms: _443  and  _444
REMARK  184  A    between atoms: _443  and  _446
REMARK  185  A    between atoms: _446  and  _447
REMARK  186  A    between atoms: _447  and  _448
REMARK  187  A    between atoms: _450  and  _452
REMARK  188  A    between atoms: _452  and  _453
REMARK  189  A    between atoms: _452  and  _455
REMARK  190  A    between atoms: _455  and  _456
REMARK  191  A    between atoms: _456  and  _457
REMARK  192  A    between atoms: _462  and  _464
REMARK  193  A    between atoms: _464  and  _465
REMARK  194  A    between atoms: _464  and  _467
REMARK  195  A    between atoms: _467  and  _468
REMARK                            x       y       z     vdW  Elec       q    Type
REMARK                         _______ _______ _______ _____ _____    ______ ____
ROOT
ATOM      1  NE  ARG A   1      24.138   8.011  19.135  0.00  0.00    -0.261 N 
ATOM      2  CZ  ARG A   1      23.258   9.024  19.148  0.00  0.00    +0.342 C 
ATOM      3  NH2 ARG A   1      22.073   8.850  19.738  0.00  0.00    -0.292 N 
ATOM      4 HH21 ARG A   1      21.841   7.938  20.180  0.00  0.00    +0.255 HD
ATOM      5 HH22 ARG A   1      21.382   9.627  19.755  0.00  0.00    +0.255 HD
ATOM      6  NH1 ARG A   1      23.551  10.169  18.556  0.00  0.00    -0.292 N 
ATOM      7 HH11 ARG A   1      22.866  10.951  18.569  0.00  0.00    +0.255 HD
ATOM      8 HH12 ARG A   1      24.467  10.288  18.078  0.00  0.00    +0.255 HD
ATOM      9  HE  ARG A   1      25.077   8.165  18.716  0.00  0.00    +0.259 HD
ENDROOT
BRANCH   1  10
ATOM     10  CD  ARG A   1      23.810   6.666  19.705  0.00  0.00    +0.200 C 
BRANCH  10  12
ATOM     11  CB  ARG A   1      26.297   6.029  20.158  0.00  0.00    -0.003 C 
ATOM     12  CG  ARG A   1      24.857   6.197  20.705  0.00  0.00    +0.014 C 
BRANCH  11  13
ATOM     13  CA  ARG A   1      27.360   5.594  21.207  0.00  0.00    +0.155 C 
BRANCH  13  14
ATOM     14  N   ARG A   1      27.674   6.671  22.155  0.00  0.00    -0.235 NA
ATOM     15  H   ARG A   1      27.217   7.601  22.063  0.00  0.00    +0.142 HD
ENDBRANCH  13  14
BRANCH  13  16
ATOM     16  C   ARG A   1      28.661   5.095  20.472  0.00  0.00    +0.229 C 
ATOM     17  O   ARG A   1      28.733   3.915  20.092  0.00  0.00    -0.286 OA
ENDBRANCH  13  16
ENDBRANCH  11  13
ENDBRANCH  10  12
ENDBRANCH   1  10
TORSDOF 5
REMARK  Name = ../refined-set-2016/4k5p/4k5p_pocket.pdb
REMARK  195 active torsions:
REMARK  status: ('A' for Active; 'I' for Inactive)
REMARK    1  A    between atoms: _1  and  _3
REMARK    2  A    between atoms: _3  and  _4
REMARK    3  A    between atoms: _3  and  _6
REMARK    4  A    between atoms: _6  and  _7
REMARK    5  A    between atoms: _10  and  _12
REMARK    6  A    between atoms: _12  and  _13
REMARK    7  A    between atoms: _12  and  _15
REMARK    8  A    between atoms: _15  and  _16
REMARK    9  A    between atoms: _19  and  _21
REMARK   10  A    between atoms: _21  and  _22
REMARK   11  A    between atoms: _21  and  _24
REMARK   12  A    between atoms: _24  and  _25
REMARK   13  A    between atoms: _25  and  _26
REMARK   14  A    between atoms: _31  and  _33
REMARK   15  A    between atoms: _33  and  _34
REMARK   16  A    between atoms: _33  and  _36
REMARK   17  A    between atoms: _38  and  _40
REMARK   18  A    between atoms: _40  and  _41
REMARK   19  A    between atoms: _40  and  _43
REMARK   20  A    between atoms: _43  and  _44
REMARK   21  A    between atoms: _44  and  _45
REMARK   22  A    between atoms: _48  and  _50
REMARK   23  A    between atoms: _50  and  _51
REMARK   24  A    between atoms: _54  and  _56
REMARK   25  A    between atoms: _56  and  _57
REMARK   26  A    between atoms: _56  and  _59
REMARK   27  A    between atoms: _59  and  _60
REMARK   28  A    between atoms: _63  and  _65
REMARK   29  A    between atoms: _65  and  _66
REMARK   30  A    between atoms: _68  and  _70
REMARK   31  A    between atoms: _70  and  _71
REMARK   32  A    between atoms: _70  and  _73
REMARK   33  A    between atoms: _73  and  _74
REMARK   34  A    between atoms: _79  and  _80
REMARK   35  A    between atoms: _82  and  _84
REMARK   36  A    between atoms: _84  and  _85
REMARK   37  A    between atoms: _84  and  _87
REMARK   38  A    between atoms: _87  and  _88
REMARK   39  A    between atoms: _91  and  _93
REMARK   40  A    between atoms: _93  and  _94
REMARK   41  A    between atoms: _93  and  _96
REMARK   42  A    between atoms: _96  and  _97
REMARK   43  A    between atoms: _103  and  _105
REMARK   44  A    between atoms: _105  and  _106
REMARK   45  A    between atoms: _105  and  _108
REMARK   46  A    between atoms: _108  and  _109
REMARK   47  A    between atoms: _114  and  _116
REMARK   48  A    between atoms: _116  and  _117
REMARK   49  A    between atoms: _116  and  _119
REMARK   50  A    between atoms: _122  and  _124
REMARK   51  A    between atoms: _124  and  _125
REMARK   52  A    between atoms: _127  and  _129
REMARK   53  A    between atoms: _129  and  _130
REMARK   54  A    between atoms: _133  and  _135
REMARK   55  A    between atoms: _135  and  _136
REMARK   56  A    between atoms: _135  and  _138
REMARK   57  A    between atoms: _138  and  _139
REMARK   58  A    between atoms: _139  and  _140
REMARK   59  A    between atoms: _142  and  _144
REMARK   60  A    between atoms: _144  and  _145
REMARK   61  A    between atoms: _144  and  _147
REMARK   62  A    between atoms: _147  and  _148
REMARK   63  A    between atoms: _148  and  _149
REMARK   64  A    between atoms: _152  and  _154
REMARK   65  A    between atoms: _154  and  _155
REMARK   66  A    between atoms: _154  and  _157
REMARK   67  A    between atoms: _157  and  _158
REMARK   68  A    between atoms: _163  and  _165
REMARK   69  A    between atoms: _165  and  _166
REMARK   70  A    between atoms: _165  and  _168
REMARK   71  A    between atoms: _168  and  _169
REMARK   72  A    between atoms: _172  and  _174
REMARK   73  A    between atoms: _174  and  _175
REMARK   74  A    between atoms: _174  and  _177
REMARK   75  A    between atoms: _177  and  _178
REMARK   76  A    between atoms: _183  and  _185
REMARK   77  A    between atoms: _185  and  _186
REMARK   78  A    between atoms: _185  and  _188
REMARK   79  A    between atoms: _188  and  _189
REMARK   80  A    between atoms: _189  and  _190
REMARK   81  A    between atoms: _190  and  _191
REMARK   82  A    between atoms: _200  and  _202
REMARK   83  A    between atoms: _202  and  _203
REMARK   84  A    between atoms: _202  and  _205
REMARK   85  A    between atoms: _208  and  _210
REMARK   86  A    between atoms: _210  and  _211
REMARK   87  A    between atoms: _210  and  _213
REMARK   88  A    between atoms: _213  and  _214
REMARK   89  A    between atoms: _218  and  ZN_473
REMARK   90  A    between atoms: _219  and  _221
REMARK   91  A    between atoms: _221  and  _222
REMARK   92  A    between atoms: _221  and  _224
REMARK   93  A    between atoms: _224  and  _225
REMARK   94  A    between atoms: _225  and  _226
REMARK   95  A    between atoms: _229  and  _231
REMARK   96  A    between atoms: _231  and  _232
REMARK   97  A    between atoms: _231  and  _234
REMARK   98  A    between atoms: _234  and  _235
REMARK   99  A    between atoms: _240  and  _241
REMARK  100  A    between atoms: _243  and  _245
REMARK  101  A    between atoms: _245  and  _246
REMARK  102  A    between atoms: _245  and  _248
REMARK  103  A    between atoms: _248  and  _249
REMARK  104  A    between atoms: _253  and  ZN_473
REMARK  105  A    between atoms: _254  and  _256
REMARK  106  A    between atoms: _256  and  _257
REMARK  107  A    between atoms: _256  and  _259
REMARK  108  A    between atoms: _259  and  _260
REMARK  109  A    between atoms: _263  and  _265
REMARK  110  A    between atoms: _265  and  _266
REMARK  111  A    between atoms: _265  and  _268
REMARK  112  A    between atoms: _268  and  _269
REMARK  113  A    between atoms: _274  and  _276
REMARK  114  A    between atoms: _276  and  _277
REMARK  115  A    between atoms: _276  and  _279
REMARK  116  A    between atoms: _279  and  _280
REMARK  117  A    between atoms: _290  and  _292
REMARK  118  A    between atoms: _292  and  _293
REMARK  119  A    between atoms: _292  and  _295
REMARK  120  A    between atoms: _295  and  _296
REMARK  121  A    between atoms: _299  and  _301
REMARK  122  A    between atoms: _301  and  _302
REMARK  123  A    between atoms: _301  and  _304
REMARK  124  A    between atoms: _304  and  _305
REMARK  125  A    between atoms: _305  and  _306
REMARK  126  A    between atoms: _306  and  _307
REMARK  127  A    between atoms: _307  and  _308
REMARK  128  A    between atoms: _312  and  _314
REMARK  129  A    between atoms: _314  and  _315
REMARK  130  A    between atoms: _314  and  _317
REMARK  131  A    between atoms: _317  and  _318
REMARK  132  A    between atoms: _318  and  _319
REMARK  133  A    between atoms: _319  and  _320
REMARK  134  A    between atoms: _320  and  ZN_473
REMARK  135  A    between atoms: _322  and  _324
REMARK  136  A    between atoms: _324  and  _325
REMARK  137  A    between atoms: _327  and  _329
REMARK  138  A    between atoms: _329  and  _330
REMARK  139  A    between atoms: _329  and  _332
REMARK  140  A    between atoms: _332  and  _333
REMARK  141  A    between atoms: _336  and  _338
REMARK  142  A    between atoms: _338  and  _339
REMARK  143  A    between atoms: _338  and  _341
REMARK  144  A    between atoms: _344  and  _346
REMARK  145  A    between atoms: _346  and  _347
REMARK  146  A    between atoms: _346  and  _349
REMARK  147  A    between atoms: _349  and  _350
REMARK  148  A    between atoms: _350  and  _351
REMARK  149  A    between atoms: _354  and  _356
REMARK  150  A    between atoms: _356  and  _357
REMARK  151  A    between atoms: _356  and  _359
REMARK  152  A    between atoms: _359  and  _360
REMARK  153  A    between atoms: _360  and  _361
REMARK  154  A    between atoms: _363  and  _365
REMARK  155  A    between atoms: _365  and  _366
REMARK  156  A    between atoms: _365  and  _368
REMARK  157  A    between atoms: _368  and  _369
REMARK  158  A    between atoms: _369  and  _370
REMARK  159  A    between atoms: _373  and  _375
REMARK  160  A    between atoms: _375  and  _376
REMARK  161  A    between atoms: _375  and  _378
REMARK  162  A    between atoms: _378  and  _379
REMARK  163  A    between atoms: _384  and  _386
REMARK  164  A    between atoms: _386  and  _387
REMARK  165  A    between atoms: _386  and  _389
REMARK  166  A    between atoms: _389  and  _390
REMARK  167  A    between atoms: _396  and  _398
REMARK  168  A    between atoms: _398  and  _399
REMARK  169  A    between atoms: _398  and  _401
REMARK  170  A    between atoms: _401  and  _402
REMARK  171  A    between atoms: _407  and  _408
REMARK  172  A    between atoms: _410  and  _412
REMARK  173  A    between atoms: _412  and  _413
REMARK  174  A    between atoms: _412  and  _415
REMARK  175  A    between atoms: _415  and  _416
REMARK  176  A    between atoms: _421  and  _422
REMARK  177  A    between atoms: _424  and  _426
REMARK  178  A    between atoms: _426  and  _427
REMARK  179  A    between atoms: _426  and  _429
REMARK  180  A    between atoms: _430  and  _431
REMARK  181  A    between atoms: _431  and  _432
REMARK  182  A    between atoms: _441  and  _443
REMARK  183  A    between atoms: _443  and  _444
REMARK  184  A    between atoms: _443  and  _446
REMARK  185  A    between atoms: _446  and  _447
REMARK  186  A    between atoms: _447  and  _448
REMARK  187  A    between atoms: _450  and  _452
REMARK  188  A    between atoms: _452  and  _453
REMARK  189  A    between atoms: _452  and  _455
REMARK  190  A    between atoms: _455  and  _456
REMARK  191  A    between atoms: _456  and  _457
REMARK  192  A    between atoms: _462  and  _464
REMARK  193  A    between atoms: _464  and  _465
REMARK  194  A    between atoms: _464  and  _467
REMARK  195  A    between atoms: _467  and  _468
REMARK                            x       y       z     vdW  Elec       q    Type
REMARK                         _______ _______ _______ _____ _____    ______ ____
ROOT
ATOM      1  CA  MET A   1      16.248   8.180  24.843  0.00  0.00    +0.134 C 
ENDROOT
BRANCH   1   2
ATOM      2  N   MET A   1      16.330   8.661  26.224  0.00  0.00    -0.239 NA
ATOM      3  H   MET A   1      16.295   9.679  26.432  0.00  0.00    +0.142 HD
ENDBRANCH   1   2
BRANCH   1   4
ATOM      4  C   MET A   1      17.528   7.413  24.436  0.00  0.00    +0.224 C 
ATOM      5  O   MET A   1      17.450   6.299  23.922  0.00  0.00    -0.287 OA
ENDBRANCH   1   4
BRANCH   1   6
ATOM      6  CB  MET A   1      15.943   9.258  23.818  0.00  0.00    +0.037 C 
BRANCH   6   7
ATOM      7  CG  MET A   1      15.737   8.632  22.395  0.00  0.00    +0.059 C 
BRANCH   7   8
ATOM      8  SD  MET A   1      15.081   9.916  21.238  0.00  0.00    -0.139 S 
ATOM      9  CE  MET A   1      14.084  10.967  22.356  0.00  0.00    +0.069 C 
ENDBRANCH   7   8
ENDBRANCH   6   7
ENDBRANCH   1   6
TORSDOF 5
REMARK  Name = ../refined-set-2016/4k5p/4k5p_pocket.pdb
REMARK  195 active torsions:
REMARK  status: ('A' for Active; 'I' for Inactive)
REMARK    1  A    between atoms: _1  and  _3
REMARK    2  A    between atoms: _3  and  _4
REMARK    3  A    between atoms: _3  and  _6
REMARK    4  A    between atoms: _6  and  _7
REMARK    5  A    between atoms: _10  and  _12
REMARK    6  A    between atoms: _12  and  _13
REMARK    7  A    between atoms: _12  and  _15
REMARK    8  A    between atoms: _15  and  _16
REMARK    9  A    between atoms: _19  and  _21
REMARK   10  A    between atoms: _21  and  _22
REMARK   11  A    between atoms: _21  and  _24
REMARK   12  A    between atoms: _24  and  _25
REMARK   13  A    between atoms: _25  and  _26
REMARK   14  A    between atoms: _31  and  _33
REMARK   15  A    between atoms: _33  and  _34
REMARK   16  A    between atoms: _33  and  _36
REMARK   17  A    between atoms: _38  and  _40
REMARK   18  A    between atoms: _40  and  _41
REMARK   19  A    between atoms: _40  and  _43
REMARK   20  A    between atoms: _43  and  _44
REMARK   21  A    between atoms: _44  and  _45
REMARK   22  A    between atoms: _48  and  _50
REMARK   23  A    between atoms: _50  and  _51
REMARK   24  A    between atoms: _54  and  _56
REMARK   25  A    between atoms: _56  and  _57
REMARK   26  A    between atoms: _56  and  _59
REMARK   27  A    between atoms: _59  and  _60
REMARK   28  A    between atoms: _63  and  _65
REMARK   29  A    between atoms: _65  and  _66
REMARK   30  A    between atoms: _68  and  _70
REMARK   31  A    between atoms: _70  and  _71
REMARK   32  A    between atoms: _70  and  _73
REMARK   33  A    between atoms: _73  and  _74
REMARK   34  A    between atoms: _79  and  _80
REMARK   35  A    between atoms: _82  and  _84
REMARK   36  A    between atoms: _84  and  _85
REMARK   37  A    between atoms: _84  and  _87
REMARK   38  A    between atoms: _87  and  _88
REMARK   39  A    between atoms: _91  and  _93
REMARK   40  A    between atoms: _93  and  _94
REMARK   41  A    between atoms: _93  and  _96
REMARK   42  A    between atoms: _96  and  _97
REMARK   43  A    between atoms: _103  and  _105
REMARK   44  A    between atoms: _105  and  _106
REMARK   45  A    between atoms: _105  and  _108
REMARK   46  A    between atoms: _108  and  _109
REMARK   47  A    between atoms: _114  and  _116
REMARK   48  A    between atoms: _116  and  _117
REMARK   49  A    between atoms: _116  and  _119
REMARK   50  A    between atoms: _122  and  _124
REMARK   51  A    between atoms: _124  and  _125
REMARK   52  A    between atoms: _127  and  _129
REMARK   53  A    between atoms: _129  and  _130
REMARK   54  A    between atoms: _133  and  _135
REMARK   55  A    between atoms: _135  and  _136
REMARK   56  A    between atoms: _135  and  _138
REMARK   57  A    between atoms: _138  and  _139
REMARK   58  A    between atoms: _139  and  _140
REMARK   59  A    between atoms: _142  and  _144
REMARK   60  A    between atoms: _144  and  _145
REMARK   61  A    between atoms: _144  and  _147
REMARK   62  A    between atoms: _147  and  _148
REMARK   63  A    between atoms: _148  and  _149
REMARK   64  A    between atoms: _152  and  _154
REMARK   65  A    between atoms: _154  and  _155
REMARK   66  A    between atoms: _154  and  _157
REMARK   67  A    between atoms: _157  and  _158
REMARK   68  A    between atoms: _163  and  _165
REMARK   69  A    between atoms: _165  and  _166
REMARK   70  A    between atoms: _165  and  _168
REMARK   71  A    between atoms: _168  and  _169
REMARK   72  A    between atoms: _172  and  _174
REMARK   73  A    between atoms: _174  and  _175
REMARK   74  A    between atoms: _174  and  _177
REMARK   75  A    between atoms: _177  and  _178
REMARK   76  A    between atoms: _183  and  _185
REMARK   77  A    between atoms: _185  and  _186
REMARK   78  A    between atoms: _185  and  _188
REMARK   79  A    between atoms: _188  and  _189
REMARK   80  A    between atoms: _189  and  _190
REMARK   81  A    between atoms: _190  and  _191
REMARK   82  A    between atoms: _200  and  _202
REMARK   83  A    between atoms: _202  and  _203
REMARK   84  A    between atoms: _202  and  _205
REMARK   85  A    between atoms: _208  and  _210
REMARK   86  A    between atoms: _210  and  _211
REMARK   87  A    between atoms: _210  and  _213
REMARK   88  A    between atoms: _213  and  _214
REMARK   89  A    between atoms: _218  and  ZN_473
REMARK   90  A    between atoms: _219  and  _221
REMARK   91  A    between atoms: _221  and  _222
REMARK   92  A    between atoms: _221  and  _224
REMARK   93  A    between atoms: _224  and  _225
REMARK   94  A    between atoms: _225  and  _226
REMARK   95  A    between atoms: _229  and  _231
REMARK   96  A    between atoms: _231  and  _232
REMARK   97  A    between atoms: _231  and  _234
REMARK   98  A    between atoms: _234  and  _235
REMARK   99  A    between atoms: _240  and  _241
REMARK  100  A    between atoms: _243  and  _245
REMARK  101  A    between atoms: _245  and  _246
REMARK  102  A    between atoms: _245  and  _248
REMARK  103  A    between atoms: _248  and  _249
REMARK  104  A    between atoms: _253  and  ZN_473
REMARK  105  A    between atoms: _254  and  _256
REMARK  106  A    between atoms: _256  and  _257
REMARK  107  A    between atoms: _256  and  _259
REMARK  108  A    between atoms: _259  and  _260
REMARK  109  A    between atoms: _263  and  _265
REMARK  110  A    between atoms: _265  and  _266
REMARK  111  A    between atoms: _265  and  _268
REMARK  112  A    between atoms: _268  and  _269
REMARK  113  A    between atoms: _274  and  _276
REMARK  114  A    between atoms: _276  and  _277
REMARK  115  A    between atoms: _276  and  _279
REMARK  116  A    between atoms: _279  and  _280
REMARK  117  A    between atoms: _290  and  _292
REMARK  118  A    between atoms: _292  and  _293
REMARK  119  A    between atoms: _292  and  _295
REMARK  120  A    between atoms: _295  and  _296
REMARK  121  A    between atoms: _299  and  _301
REMARK  122  A    between atoms: _301  and  _302
REMARK  123  A    between atoms: _301  and  _304
REMARK  124  A    between atoms: _304  and  _305
REMARK  125  A    between atoms: _305  and  _306
REMARK  126  A    between atoms: _306  and  _307
REMARK  127  A    between atoms: _307  and  _308
REMARK  128  A    between atoms: _312  and  _314
REMARK  129  A    between atoms: _314  and  _315
REMARK  130  A    between atoms: _314  and  _317
REMARK  131  A    between atoms: _317  and  _318
REMARK  132  A    between atoms: _318  and  _319
REMARK  133  A    between atoms: _319  and  _320
REMARK  134  A    between atoms: _320  and  ZN_473
REMARK  135  A    between atoms: _322  and  _324
REMARK  136  A    between atoms: _324  and  _325
REMARK  137  A    between atoms: _327  and  _329
REMARK  138  A    between atoms: _329  and  _330
REMARK  139  A    between atoms: _329  and  _332
REMARK  140  A    between atoms: _332  and  _333
REMARK  141  A    between atoms: _336  and  _338
REMARK  142  A    between atoms: _338  and  _339
REMARK  143  A    between atoms: _338  and  _341
REMARK  144  A    between atoms: _344  and  _346
REMARK  145  A    between atoms: _346  and  _347
REMARK  146  A    between atoms: _346  and  _349
REMARK  147  A    between atoms: _349  and  _350
REMARK  148  A    between atoms: _350  and  _351
REMARK  149  A    between atoms: _354  and  _356
REMARK  150  A    between atoms: _356  and  _357
REMARK  151  A    between atoms: _356  and  _359
REMARK  152  A    between atoms: _359  and  _360
REMARK  153  A    between atoms: _360  and  _361
REMARK  154  A    between atoms: _363  and  _365
REMARK  155  A    between atoms: _365  and  _366
REMARK  156  A    between atoms: _365  and  _368
REMARK  157  A    between atoms: _368  and  _369
REMARK  158  A    between atoms: _369  and  _370
REMARK  159  A    between atoms: _373  and  _375
REMARK  160  A    between atoms: _375  and  _376
REMARK  161  A    between atoms: _375  and  _378
REMARK  162  A    between atoms: _378  and  _379
REMARK  163  A    between atoms: _384  and  _386
REMARK  164  A    between atoms: _386  and  _387
REMARK  165  A    between atoms: _386  and  _389
REMARK  166  A    between atoms: _389  and  _390
REMARK  167  A    between atoms: _396  and  _398
REMARK  168  A    between atoms: _398  and  _399
REMARK  169  A    between atoms: _398  and  _401
REMARK  170  A    between atoms: _401  and  _402
REMARK  171  A    between atoms: _407  and  _408
REMARK  172  A    between atoms: _410  and  _412
REMARK  173  A    between atoms: _412  and  _413
REMARK  174  A    between atoms: _412  and  _415
REMARK  175  A    between atoms: _415  and  _416
REMARK  176  A    between atoms: _421  and  _422
REMARK  177  A    between atoms: _424  and  _426
REMARK  178  A    between atoms: _426  and  _427
REMARK  179  A    between atoms: _426  and  _429
REMARK  180  A    between atoms: _430  and  _431
REMARK  181  A    between atoms: _431  and  _432
REMARK  182  A    between atoms: _441  and  _443
REMARK  183  A    between atoms: _443  and  _444
REMARK  184  A    between atoms: _443  and  _446
REMARK  185  A    between atoms: _446  and  _447
REMARK  186  A    between atoms: _447  and  _448
REMARK  187  A    between atoms: _450  and  _452
REMARK  188  A    between atoms: _452  and  _453
REMARK  189  A    between atoms: _452  and  _455
REMARK  190  A    between atoms: _455  and  _456
REMARK  191  A    between atoms: _456  and  _457
REMARK  192  A    between atoms: _462  and  _464
REMARK  193  A    between atoms: _464  and  _465
REMARK  194  A    between atoms: _464  and  _467
REMARK  195  A    between atoms: _467  and  _468
REMARK                            x       y       z     vdW  Elec       q    Type
REMARK                         _______ _______ _______ _____ _____    ______ ____
ROOT
ATOM      1  CB  GLN A   1      19.824   4.318  21.577  0.00  0.00    +0.035 C 
ENDROOT
BRANCH   1   2
ATOM      2  CA  GLN A   1      19.233   3.059  22.256  0.00  0.00    +0.134 C 
BRANCH   2   3
ATOM      3  N   GLN A   1      18.460   3.437  23.416  0.00  0.00    -0.239 NA
ATOM      4  H   GLN A   1      18.339   4.443  23.650  0.00  0.00    +0.142 HD
ENDBRANCH   2   3
BRANCH   2   5
ATOM      5  C   GLN A   1      20.386   2.139  22.643  0.00  0.00    +0.224 C 
ATOM      6  O   GLN A   1      20.729   1.214  21.887  0.00  0.00    -0.287 OA
ENDBRANCH   2   5
ENDBRANCH   1   2
BRANCH   1   7
ATOM      7  CG  GLN A   1      18.828   5.191  20.815  0.00  0.00    +0.087 C 
BRANCH   7   8
ATOM      8  CD  GLN A   1      19.449   6.483  20.366  0.00  0.00    +0.219 C 
ATOM      9  OE1 GLN A   1      20.591   6.741  20.657  0.00  0.00    -0.275 OA
ATOM     10  NE2 GLN A   1      18.681   7.331  19.696  0.00  0.00    -0.329 N 
ATOM     11 HE21 GLN A   1      17.701   7.073  19.463  0.00  0.00    +0.145 HD
ATOM     12 HE22 GLN A   1      19.059   8.255  19.403  0.00  0.00    +0.145 HD
ENDBRANCH   7   8
ENDBRANCH   1   7
TORSDOF 5
REMARK  Name = ../refined-set-2016/4k5p/4k5p_pocket.pdb
REMARK  195 active torsions:
REMARK  status: ('A' for Active; 'I' for Inactive)
REMARK    1  A    between atoms: _1  and  _3
REMARK    2  A    between atoms: _3  and  _4
REMARK    3  A    between atoms: _3  and  _6
REMARK    4  A    between atoms: _6  and  _7
REMARK    5  A    between atoms: _10  and  _12
REMARK    6  A    between atoms: _12  and  _13
REMARK    7  A    between atoms: _12  and  _15
REMARK    8  A    between atoms: _15  and  _16
REMARK    9  A    between atoms: _19  and  _21
REMARK   10  A    between atoms: _21  and  _22
REMARK   11  A    between atoms: _21  and  _24
REMARK   12  A    between atoms: _24  and  _25
REMARK   13  A    between atoms: _25  and  _26
REMARK   14  A    between atoms: _31  and  _33
REMARK   15  A    between atoms: _33  and  _34
REMARK   16  A    between atoms: _33  and  _36
REMARK   17  A    between atoms: _38  and  _40
REMARK   18  A    between atoms: _40  and  _41
REMARK   19  A    between atoms: _40  and  _43
REMARK   20  A    between atoms: _43  and  _44
REMARK   21  A    between atoms: _44  and  _45
REMARK   22  A    between atoms: _48  and  _50
REMARK   23  A    between atoms: _50  and  _51
REMARK   24  A    between atoms: _54  and  _56
REMARK   25  A    between atoms: _56  and  _57
REMARK   26  A    between atoms: _56  and  _59
REMARK   27  A    between atoms: _59  and  _60
REMARK   28  A    between atoms: _63  and  _65
REMARK   29  A    between atoms: _65  and  _66
REMARK   30  A    between atoms: _68  and  _70
REMARK   31  A    between atoms: _70  and  _71
REMARK   32  A    between atoms: _70  and  _73
REMARK   33  A    between atoms: _73  and  _74
REMARK   34  A    between atoms: _79  and  _80
REMARK   35  A    between atoms: _82  and  _84
REMARK   36  A    between atoms: _84  and  _85
REMARK   37  A    between atoms: _84  and  _87
REMARK   38  A    between atoms: _87  and  _88
REMARK   39  A    between atoms: _91  and  _93
REMARK   40  A    between atoms: _93  and  _94
REMARK   41  A    between atoms: _93  and  _96
REMARK   42  A    between atoms: _96  and  _97
REMARK   43  A    between atoms: _103  and  _105
REMARK   44  A    between atoms: _105  and  _106
REMARK   45  A    between atoms: _105  and  _108
REMARK   46  A    between atoms: _108  and  _109
REMARK   47  A    between atoms: _114  and  _116
REMARK   48  A    between atoms: _116  and  _117
REMARK   49  A    between atoms: _116  and  _119
REMARK   50  A    between atoms: _122  and  _124
REMARK   51  A    between atoms: _124  and  _125
REMARK   52  A    between atoms: _127  and  _129
REMARK   53  A    between atoms: _129  and  _130
REMARK   54  A    between atoms: _133  and  _135
REMARK   55  A    between atoms: _135  and  _136
REMARK   56  A    between atoms: _135  and  _138
REMARK   57  A    between atoms: _138  and  _139
REMARK   58  A    between atoms: _139  and  _140
REMARK   59  A    between atoms: _142  and  _144
REMARK   60  A    between atoms: _144  and  _145
REMARK   61  A    between atoms: _144  and  _147
REMARK   62  A    between atoms: _147  and  _148
REMARK   63  A    between atoms: _148  and  _149
REMARK   64  A    between atoms: _152  and  _154
REMARK   65  A    between atoms: _154  and  _155
REMARK   66  A    between atoms: _154  and  _157
REMARK   67  A    between atoms: _157  and  _158
REMARK   68  A    between atoms: _163  and  _165
REMARK   69  A    between atoms: _165  and  _166
REMARK   70  A    between atoms: _165  and  _168
REMARK   71  A    between atoms: _168  and  _169
REMARK   72  A    between atoms: _172  and  _174
REMARK   73  A    between atoms: _174  and  _175
REMARK   74  A    between atoms: _174  and  _177
REMARK   75  A    between atoms: _177  and  _178
REMARK   76  A    between atoms: _183  and  _185
REMARK   77  A    between atoms: _185  and  _186
REMARK   78  A    between atoms: _185  and  _188
REMARK   79  A    between atoms: _188  and  _189
REMARK   80  A    between atoms: _189  and  _190
REMARK   81  A    between atoms: _190  and  _191
REMARK   82  A    between atoms: _200  and  _202
REMARK   83  A    between atoms: _202  and  _203
REMARK   84  A    between atoms: _202  and  _205
REMARK   85  A    between atoms: _208  and  _210
REMARK   86  A    between atoms: _210  and  _211
REMARK   87  A    between atoms: _210  and  _213
REMARK   88  A    between atoms: _213  and  _214
REMARK   89  A    between atoms: _218  and  ZN_473
REMARK   90  A    between atoms: _219  and  _221
REMARK   91  A    between atoms: _221  and  _222
REMARK   92  A    between atoms: _221  and  _224
REMARK   93  A    between atoms: _224  and  _225
REMARK   94  A    between atoms: _225  and  _226
REMARK   95  A    between atoms: _229  and  _231
REMARK   96  A    between atoms: _231  and  _232
REMARK   97  A    between atoms: _231  and  _234
REMARK   98  A    between atoms: _234  and  _235
REMARK   99  A    between atoms: _240  and  _241
REMARK  100  A    between atoms: _243  and  _245
REMARK  101  A    between atoms: _245  and  _246
REMARK  102  A    between atoms: _245  and  _248
REMARK  103  A    between atoms: _248  and  _249
REMARK  104  A    between atoms: _253  and  ZN_473
REMARK  105  A    between atoms: _254  and  _256
REMARK  106  A    between atoms: _256  and  _257
REMARK  107  A    between atoms: _256  and  _259
REMARK  108  A    between atoms: _259  and  _260
REMARK  109  A    between atoms: _263  and  _265
REMARK  110  A    between atoms: _265  and  _266
REMARK  111  A    between atoms: _265  and  _268
REMARK  112  A    between atoms: _268  and  _269
REMARK  113  A    between atoms: _274  and  _276
REMARK  114  A    between atoms: _276  and  _277
REMARK  115  A    between atoms: _276  and  _279
REMARK  116  A    between atoms: _279  and  _280
REMARK  117  A    between atoms: _290  and  _292
REMARK  118  A    between atoms: _292  and  _293
REMARK  119  A    between atoms: _292  and  _295
REMARK  120  A    between atoms: _295  and  _296
REMARK  121  A    between atoms: _299  and  _301
REMARK  122  A    between atoms: _301  and  _302
REMARK  123  A    between atoms: _301  and  _304
REMARK  124  A    between atoms: _304  and  _305
REMARK  125  A    between atoms: _305  and  _306
REMARK  126  A    between atoms: _306  and  _307
REMARK  127  A    between atoms: _307  and  _308
REMARK  128  A    between atoms: _312  and  _314
REMARK  129  A    between atoms: _314  and  _315
REMARK  130  A    between atoms: _314  and  _317
REMARK  131  A    between atoms: _317  and  _318
REMARK  132  A    between atoms: _318  and  _319
REMARK  133  A    between atoms: _319  and  _320
REMARK  134  A    between atoms: _320  and  ZN_473
REMARK  135  A    between atoms: _322  and  _324
REMARK  136  A    between atoms: _324  and  _325
REMARK  137  A    between atoms: _327  and  _329
REMARK  138  A    between atoms: _329  and  _330
REMARK  139  A    between atoms: _329  and  _332
REMARK  140  A    between atoms: _332  and  _333
REMARK  141  A    between atoms: _336  and  _338
REMARK  142  A    between atoms: _338  and  _339
REMARK  143  A    between atoms: _338  and  _341
REMARK  144  A    between atoms: _344  and  _346
REMARK  145  A    between atoms: _346  and  _347
REMARK  146  A    between atoms: _346  and  _349
REMARK  147  A    between atoms: _349  and  _350
REMARK  148  A    between atoms: _350  and  _351
REMARK  149  A    between atoms: _354  and  _356
REMARK  150  A    between atoms: _356  and  _357
REMARK  151  A    between atoms: _356  and  _359
REMARK  152  A    between atoms: _359  and  _360
REMARK  153  A    between atoms: _360  and  _361
REMARK  154  A    between atoms: _363  and  _365
REMARK  155  A    between atoms: _365  and  _366
REMARK  156  A    between atoms: _365  and  _368
REMARK  157  A    between atoms: _368  and  _369
REMARK  158  A    between atoms: _369  and  _370
REMARK  159  A    between atoms: _373  and  _375
REMARK  160  A    between atoms: _375  and  _376
REMARK  161  A    between atoms: _375  and  _378
REMARK  162  A    between atoms: _378  and  _379
REMARK  163  A    between atoms: _384  and  _386
REMARK  164  A    between atoms: _386  and  _387
REMARK  165  A    between atoms: _386  and  _389
REMARK  166  A    between atoms: _389  and  _390
REMARK  167  A    between atoms: _396  and  _398
REMARK  168  A    between atoms: _398  and  _399
REMARK  169  A    between atoms: _398  and  _401
REMARK  170  A    between atoms: _401  and  _402
REMARK  171  A    between atoms: _407  and  _408
REMARK  172  A    between atoms: _410  and  _412
REMARK  173  A    between atoms: _412  and  _413
REMARK  174  A    between atoms: _412  and  _415
REMARK  175  A    between atoms: _415  and  _416
REMARK  176  A    between atoms: _421  and  _422
REMARK  177  A    between atoms: _424  and  _426
REMARK  178  A    between atoms: _426  and  _427
REMARK  179  A    between atoms: _426  and  _429
REMARK  180  A    between atoms: _430  and  _431
REMARK  181  A    between atoms: _431  and  _432
REMARK  182  A    between atoms: _441  and  _443
REMARK  183  A    between atoms: _443  and  _444
REMARK  184  A    between atoms: _443  and  _446
REMARK  185  A    between atoms: _446  and  _447
REMARK  186  A    between atoms: _447  and  _448
REMARK  187  A    between atoms: _450  and  _452
REMARK  188  A    between atoms: _452  and  _453
REMARK  189  A    between atoms: _452  and  _455
REMARK  190  A    between atoms: _455  and  _456
REMARK  191  A    between atoms: _456  and  _457
REMARK  192  A    between atoms: _462  and  _464
REMARK  193  A    between atoms: _464  and  _465
REMARK  194  A    between atoms: _464  and  _467
REMARK  195  A    between atoms: _467  and  _468
REMARK                            x       y       z     vdW  Elec       q    Type
REMARK                         _______ _______ _______ _____ _____    ______ ____
ROOT
ATOM      1  CB  ASN A   1      12.219   6.436  28.533  0.00  0.00    +0.110 C 
ENDROOT
BRANCH   1   2
ATOM      2  CG  ASN A   1      11.837   6.945  27.265  0.00  0.00    +0.221 C 
ATOM      3  OD1 ASN A   1      10.623   7.532  27.208  0.00  0.00    -0.275 OA
ATOM      4  ND2 ASN A   1      12.647   6.924  26.313  0.00  0.00    -0.329 N 
ATOM      5 HD21 ASN A   1      13.568   6.453  26.424  0.00  0.00    +0.145 HD
ATOM      6 HD22 ASN A   1      12.400   7.377  25.410  0.00  0.00    +0.145 HD
ENDBRANCH   1   2
BRANCH   1   7
ATOM      7  CA  ASN A   1      11.215   5.483  29.081  0.00  0.00    +0.142 C 
BRANCH   7   8
ATOM      8  N   ASN A   1      10.801   5.985  30.345  0.00  0.00    -0.239 NA
ATOM      9  H   ASN A   1      11.066   6.955  30.609  0.00  0.00    +0.142 HD
ENDBRANCH   7   8
BRANCH   7  10
ATOM     10  C   ASN A   1      11.962   4.153  29.160  0.00  0.00    +0.225 C 
ATOM     11  O   ASN A   1      11.638   3.167  28.466  0.00  0.00    -0.287 OA
ENDBRANCH   7  10
ENDBRANCH   1   7
TORSDOF 4
REMARK  Name = ../refined-set-2016/4k5p/4k5p_pocket.pdb
REMARK  195 active torsions:
REMARK  status: ('A' for Active; 'I' for Inactive)
REMARK    1  A    between atoms: _1  and  _3
REMARK    2  A    between atoms: _3  and  _4
REMARK    3  A    between atoms: _3  and  _6
REMARK    4  A    between atoms: _6  and  _7
REMARK    5  A    between atoms: _10  and  _12
REMARK    6  A    between atoms: _12  and  _13
REMARK    7  A    between atoms: _12  and  _15
REMARK    8  A    between atoms: _15  and  _16
REMARK    9  A    between atoms: _19  and  _21
REMARK   10  A    between atoms: _21  and  _22
REMARK   11  A    between atoms: _21  and  _24
REMARK   12  A    between atoms: _24  and  _25
REMARK   13  A    between atoms: _25  and  _26
REMARK   14  A    between atoms: _31  and  _33
REMARK   15  A    between atoms: _33  and  _34
REMARK   16  A    between atoms: _33  and  _36
REMARK   17  A    between atoms: _38  and  _40
REMARK   18  A    between atoms: _40  and  _41
REMARK   19  A    between atoms: _40  and  _43
REMARK   20  A    between atoms: _43  and  _44
REMARK   21  A    between atoms: _44  and  _45
REMARK   22  A    between atoms: _48  and  _50
REMARK   23  A    between atoms: _50  and  _51
REMARK   24  A    between atoms: _54  and  _56
REMARK   25  A    between atoms: _56  and  _57
REMARK   26  A    between atoms: _56  and  _59
REMARK   27  A    between atoms: _59  and  _60
REMARK   28  A    between atoms: _63  and  _65
REMARK   29  A    between atoms: _65  and  _66
REMARK   30  A    between atoms: _68  and  _70
REMARK   31  A    between atoms: _70  and  _71
REMARK   32  A    between atoms: _70  and  _73
REMARK   33  A    between atoms: _73  and  _74
REMARK   34  A    between atoms: _79  and  _80
REMARK   35  A    between atoms: _82  and  _84
REMARK   36  A    between atoms: _84  and  _85
REMARK   37  A    between atoms: _84  and  _87
REMARK   38  A    between atoms: _87  and  _88
REMARK   39  A    between atoms: _91  and  _93
REMARK   40  A    between atoms: _93  and  _94
REMARK   41  A    between atoms: _93  and  _96
REMARK   42  A    between atoms: _96  and  _97
REMARK   43  A    between atoms: _103  and  _105
REMARK   44  A    between atoms: _105  and  _106
REMARK   45  A    between atoms: _105  and  _108
REMARK   46  A    between atoms: _108  and  _109
REMARK   47  A    between atoms: _114  and  _116
REMARK   48  A    between atoms: _116  and  _117
REMARK   49  A    between atoms: _116  and  _119
REMARK   50  A    between atoms: _122  and  _124
REMARK   51  A    between atoms: _124  and  _125
REMARK   52  A    between atoms: _127  and  _129
REMARK   53  A    between atoms: _129  and  _130
REMARK   54  A    between atoms: _133  and  _135
REMARK   55  A    between atoms: _135  and  _136
REMARK   56  A    between atoms: _135  and  _138
REMARK   57  A    between atoms: _138  and  _139
REMARK   58  A    between atoms: _139  and  _140
REMARK   59  A    between atoms: _142  and  _144
REMARK   60  A    between atoms: _144  and  _145
REMARK   61  A    between atoms: _144  and  _147
REMARK   62  A    between atoms: _147  and  _148
REMARK   63  A    between atoms: _148  and  _149
REMARK   64  A    between atoms: _152  and  _154
REMARK   65  A    between atoms: _154  and  _155
REMARK   66  A    between atoms: _154  and  _157
REMARK   67  A    between atoms: _157  and  _158
REMARK   68  A    between atoms: _163  and  _165
REMARK   69  A    between atoms: _165  and  _166
REMARK   70  A    between atoms: _165  and  _168
REMARK   71  A    between atoms: _168  and  _169
REMARK   72  A    between atoms: _172  and  _174
REMARK   73  A    between atoms: _174  and  _175
REMARK   74  A    between atoms: _174  and  _177
REMARK   75  A    between atoms: _177  and  _178
REMARK   76  A    between atoms: _183  and  _185
REMARK   77  A    between atoms: _185  and  _186
REMARK   78  A    between atoms: _185  and  _188
REMARK   79  A    between atoms: _188  and  _189
REMARK   80  A    between atoms: _189  and  _190
REMARK   81  A    between atoms: _190  and  _191
REMARK   82  A    between atoms: _200  and  _202
REMARK   83  A    between atoms: _202  and  _203
REMARK   84  A    between atoms: _202  and  _205
REMARK   85  A    between atoms: _208  and  _210
REMARK   86  A    between atoms: _210  and  _211
REMARK   87  A    between atoms: _210  and  _213
REMARK   88  A    between atoms: _213  and  _214
REMARK   89  A    between atoms: _218  and  ZN_473
REMARK   90  A    between atoms: _219  and  _221
REMARK   91  A    between atoms: _221  and  _222
REMARK   92  A    between atoms: _221  and  _224
REMARK   93  A    between atoms: _224  and  _225
REMARK   94  A    between atoms: _225  and  _226
REMARK   95  A    between atoms: _229  and  _231
REMARK   96  A    between atoms: _231  and  _232
REMARK   97  A    between atoms: _231  and  _234
REMARK   98  A    between atoms: _234  and  _235
REMARK   99  A    between atoms: _240  and  _241
REMARK  100  A    between atoms: _243  and  _245
REMARK  101  A    between atoms: _245  and  _246
REMARK  102  A    between atoms: _245  and  _248
REMARK  103  A    between atoms: _248  and  _249
REMARK  104  A    between atoms: _253  and  ZN_473
REMARK  105  A    between atoms: _254  and  _256
REMARK  106  A    between atoms: _256  and  _257
REMARK  107  A    between atoms: _256  and  _259
REMARK  108  A    between atoms: _259  and  _260
REMARK  109  A    between atoms: _263  and  _265
REMARK  110  A    between atoms: _265  and  _266
REMARK  111  A    between atoms: _265  and  _268
REMARK  112  A    between atoms: _268  and  _269
REMARK  113  A    between atoms: _274  and  _276
REMARK  114  A    between atoms: _276  and  _277
REMARK  115  A    between atoms: _276  and  _279
REMARK  116  A    between atoms: _279  and  _280
REMARK  117  A    between atoms: _290  and  _292
REMARK  118  A    between atoms: _292  and  _293
REMARK  119  A    between atoms: _292  and  _295
REMARK  120  A    between atoms: _295  and  _296
REMARK  121  A    between atoms: _299  and  _301
REMARK  122  A    between atoms: _301  and  _302
REMARK  123  A    between atoms: _301  and  _304
REMARK  124  A    between atoms: _304  and  _305
REMARK  125  A    between atoms: _305  and  _306
REMARK  126  A    between atoms: _306  and  _307
REMARK  127  A    between atoms: _307  and  _308
REMARK  128  A    between atoms: _312  and  _314
REMARK  129  A    between atoms: _314  and  _315
REMARK  130  A    between atoms: _314  and  _317
REMARK  131  A    between atoms: _317  and  _318
REMARK  132  A    between atoms: _318  and  _319
REMARK  133  A    between atoms: _319  and  _320
REMARK  134  A    between atoms: _320  and  ZN_473
REMARK  135  A    between atoms: _322  and  _324
REMARK  136  A    between atoms: _324  and  _325
REMARK  137  A    between atoms: _327  and  _329
REMARK  138  A    between atoms: _329  and  _330
REMARK  139  A    between atoms: _329  and  _332
REMARK  140  A    between atoms: _332  and  _333
REMARK  141  A    between atoms: _336  and  _338
REMARK  142  A    between atoms: _338  and  _339
REMARK  143  A    between atoms: _338  and  _341
REMARK  144  A    between atoms: _344  and  _346
REMARK  145  A    between atoms: _346  and  _347
REMARK  146  A    between atoms: _346  and  _349
REMARK  147  A    between atoms: _349  and  _350
REMARK  148  A    between atoms: _350  and  _351
REMARK  149  A    between atoms: _354  and  _356
REMARK  150  A    between atoms: _356  and  _357
REMARK  151  A    between atoms: _356  and  _359
REMARK  152  A    between atoms: _359  and  _360
REMARK  153  A    between atoms: _360  and  _361
REMARK  154  A    between atoms: _363  and  _365
REMARK  155  A    between atoms: _365  and  _366
REMARK  156  A    between atoms: _365  and  _368
REMARK  157  A    between atoms: _368  and  _369
REMARK  158  A    between atoms: _369  and  _370
REMARK  159  A    between atoms: _373  and  _375
REMARK  160  A    between atoms: _375  and  _376
REMARK  161  A    between atoms: _375  and  _378
REMARK  162  A    between atoms: _378  and  _379
REMARK  163  A    between atoms: _384  and  _386
REMARK  164  A    between atoms: _386  and  _387
REMARK  165  A    between atoms: _386  and  _389
REMARK  166  A    between atoms: _389  and  _390
REMARK  167  A    between atoms: _396  and  _398
REMARK  168  A    between atoms: _398  and  _399
REMARK  169  A    between atoms: _398  and  _401
REMARK  170  A    between atoms: _401  and  _402
REMARK  171  A    between atoms: _407  and  _408
REMARK  172  A    between atoms: _410  and  _412
REMARK  173  A    between atoms: _412  and  _413
REMARK  174  A    between atoms: _412  and  _415
REMARK  175  A    between atoms: _415  and  _416
REMARK  176  A    between atoms: _421  and  _422
REMARK  177  A    between atoms: _424  and  _426
REMARK  178  A    between atoms: _426  and  _427
REMARK  179  A    between atoms: _426  and  _429
REMARK  180  A    between atoms: _430  and  _431
REMARK  181  A    between atoms: _431  and  _432
REMARK  182  A    between atoms: _441  and  _443
REMARK  183  A    between atoms: _443  and  _444
REMARK  184  A    between atoms: _443  and  _446
REMARK  185  A    between atoms: _446  and  _447
REMARK  186  A    between atoms: _447  and  _448
REMARK  187  A    between atoms: _450  and  _452
REMARK  188  A    between atoms: _452  and  _453
REMARK  189  A    between atoms: _452  and  _455
REMARK  190  A    between atoms: _455  and  _456
REMARK  191  A    between atoms: _456  and  _457
REMARK  192  A    between atoms: _462  and  _464
REMARK  193  A    between atoms: _464  and  _465
REMARK  194  A    between atoms: _464  and  _467
REMARK  195  A    between atoms: _467  and  _468
REMARK                            x       y       z     vdW  Elec       q    Type
REMARK                         _______ _______ _______ _____ _____    ______ ____
ROOT
ATOM      1  O   HOH     1      17.900  15.875  19.952  0.00  0.00    +0.000 OA
ENDROOT
TORSDOF 0
REMARK  Name = ../refined-set-2016/4k5p/4k5p_pocket.pdb
REMARK  195 active torsions:
REMARK  status: ('A' for Active; 'I' for Inactive)
REMARK    1  A    between atoms: _1  and  _3
REMARK    2  A    between atoms: _3  and  _4
REMARK    3  A    between atoms: _3  and  _6
REMARK    4  A    between atoms: _6  and  _7
REMARK    5  A    between atoms: _10  and  _12
REMARK    6  A    between atoms: _12  and  _13
REMARK    7  A    between atoms: _12  and  _15
REMARK    8  A    between atoms: _15  and  _16
REMARK    9  A    between atoms: _19  and  _21
REMARK   10  A    between atoms: _21  and  _22
REMARK   11  A    between atoms: _21  and  _24
REMARK   12  A    between atoms: _24  and  _25
REMARK   13  A    between atoms: _25  and  _26
REMARK   14  A    between atoms: _31  and  _33
REMARK   15  A    between atoms: _33  and  _34
REMARK   16  A    between atoms: _33  and  _36
REMARK   17  A    between atoms: _38  and  _40
REMARK   18  A    between atoms: _40  and  _41
REMARK   19  A    between atoms: _40  and  _43
REMARK   20  A    between atoms: _43  and  _44
REMARK   21  A    between atoms: _44  and  _45
REMARK   22  A    between atoms: _48  and  _50
REMARK   23  A    between atoms: _50  and  _51
REMARK   24  A    between atoms: _54  and  _56
REMARK   25  A    between atoms: _56  and  _57
REMARK   26  A    between atoms: _56  and  _59
REMARK   27  A    between atoms: _59  and  _60
REMARK   28  A    between atoms: _63  and  _65
REMARK   29  A    between atoms: _65  and  _66
REMARK   30  A    between atoms: _68  and  _70
REMARK   31  A    between atoms: _70  and  _71
REMARK   32  A    between atoms: _70  and  _73
REMARK   33  A    between atoms: _73  and  _74
REMARK   34  A    between atoms: _79  and  _80
REMARK   35  A    between atoms: _82  and  _84
REMARK   36  A    between atoms: _84  and  _85
REMARK   37  A    between atoms: _84  and  _87
REMARK   38  A    between atoms: _87  and  _88
REMARK   39  A    between atoms: _91  and  _93
REMARK   40  A    between atoms: _93  and  _94
REMARK   41  A    between atoms: _93  and  _96
REMARK   42  A    between atoms: _96  and  _97
REMARK   43  A    between atoms: _103  and  _105
REMARK   44  A    between atoms: _105  and  _106
REMARK   45  A    between atoms: _105  and  _108
REMARK   46  A    between atoms: _108  and  _109
REMARK   47  A    between atoms: _114  and  _116
REMARK   48  A    between atoms: _116  and  _117
REMARK   49  A    between atoms: _116  and  _119
REMARK   50  A    between atoms: _122  and  _124
REMARK   51  A    between atoms: _124  and  _125
REMARK   52  A    between atoms: _127  and  _129
REMARK   53  A    between atoms: _129  and  _130
REMARK   54  A    between atoms: _133  and  _135
REMARK   55  A    between atoms: _135  and  _136
REMARK   56  A    between atoms: _135  and  _138
REMARK   57  A    between atoms: _138  and  _139
REMARK   58  A    between atoms: _139  and  _140
REMARK   59  A    between atoms: _142  and  _144
REMARK   60  A    between atoms: _144  and  _145
REMARK   61  A    between atoms: _144  and  _147
REMARK   62  A    between atoms: _147  and  _148
REMARK   63  A    between atoms: _148  and  _149
REMARK   64  A    between atoms: _152  and  _154
REMARK   65  A    between atoms: _154  and  _155
REMARK   66  A    between atoms: _154  and  _157
REMARK   67  A    between atoms: _157  and  _158
REMARK   68  A    between atoms: _163  and  _165
REMARK   69  A    between atoms: _165  and  _166
REMARK   70  A    between atoms: _165  and  _168
REMARK   71  A    between atoms: _168  and  _169
REMARK   72  A    between atoms: _172  and  _174
REMARK   73  A    between atoms: _174  and  _175
REMARK   74  A    between atoms: _174  and  _177
REMARK   75  A    between atoms: _177  and  _178
REMARK   76  A    between atoms: _183  and  _185
REMARK   77  A    between atoms: _185  and  _186
REMARK   78  A    between atoms: _185  and  _188
REMARK   79  A    between atoms: _188  and  _189
REMARK   80  A    between atoms: _189  and  _190
REMARK   81  A    between atoms: _190  and  _191
REMARK   82  A    between atoms: _200  and  _202
REMARK   83  A    between atoms: _202  and  _203
REMARK   84  A    between atoms: _202  and  _205
REMARK   85  A    between atoms: _208  and  _210
REMARK   86  A    between atoms: _210  and  _211
REMARK   87  A    between atoms: _210  and  _213
REMARK   88  A    between atoms: _213  and  _214
REMARK   89  A    between atoms: _218  and  ZN_473
REMARK   90  A    between atoms: _219  and  _221
REMARK   91  A    between atoms: _221  and  _222
REMARK   92  A    between atoms: _221  and  _224
REMARK   93  A    between atoms: _224  and  _225
REMARK   94  A    between atoms: _225  and  _226
REMARK   95  A    between atoms: _229  and  _231
REMARK   96  A    between atoms: _231  and  _232
REMARK   97  A    between atoms: _231  and  _234
REMARK   98  A    between atoms: _234  and  _235
REMARK   99  A    between atoms: _240  and  _241
REMARK  100  A    between atoms: _243  and  _245
REMARK  101  A    between atoms: _245  and  _246
REMARK  102  A    between atoms: _245  and  _248
REMARK  103  A    between atoms: _248  and  _249
REMARK  104  A    between atoms: _253  and  ZN_473
REMARK  105  A    between atoms: _254  and  _256
REMARK  106  A    between atoms: _256  and  _257
REMARK  107  A    between atoms: _256  and  _259
REMARK  108  A    between atoms: _259  and  _260
REMARK  109  A    between atoms: _263  and  _265
REMARK  110  A    between atoms: _265  and  _266
REMARK  111  A    between atoms: _265  and  _268
REMARK  112  A    between atoms: _268  and  _269
REMARK  113  A    between atoms: _274  and  _276
REMARK  114  A    between atoms: _276  and  _277
REMARK  115  A    between atoms: _276  and  _279
REMARK  116  A    between atoms: _279  and  _280
REMARK  117  A    between atoms: _290  and  _292
REMARK  118  A    between atoms: _292  and  _293
REMARK  119  A    between atoms: _292  and  _295
REMARK  120  A    between atoms: _295  and  _296
REMARK  121  A    between atoms: _299  and  _301
REMARK  122  A    between atoms: _301  and  _302
REMARK  123  A    between atoms: _301  and  _304
REMARK  124  A    between atoms: _304  and  _305
REMARK  125  A    between atoms: _305  and  _306
REMARK  126  A    between atoms: _306  and  _307
REMARK  127  A    between atoms: _307  and  _308
REMARK  128  A    between atoms: _312  and  _314
REMARK  129  A    between atoms: _314  and  _315
REMARK  130  A    between atoms: _314  and  _317
REMARK  131  A    between atoms: _317  and  _318
REMARK  132  A    between atoms: _318  and  _319
REMARK  133  A    between atoms: _319  and  _320
REMARK  134  A    between atoms: _320  and  ZN_473
REMARK  135  A    between atoms: _322  and  _324
REMARK  136  A    between atoms: _324  and  _325
REMARK  137  A    between atoms: _327  and  _329
REMARK  138  A    between atoms: _329  and  _330
REMARK  139  A    between atoms: _329  and  _332
REMARK  140  A    between atoms: _332  and  _333
REMARK  141  A    between atoms: _336  and  _338
REMARK  142  A    between atoms: _338  and  _339
REMARK  143  A    between atoms: _338  and  _341
REMARK  144  A    between atoms: _344  and  _346
REMARK  145  A    between atoms: _346  and  _347
REMARK  146  A    between atoms: _346  and  _349
REMARK  147  A    between atoms: _349  and  _350
REMARK  148  A    between atoms: _350  and  _351
REMARK  149  A    between atoms: _354  and  _356
REMARK  150  A    between atoms: _356  and  _357
REMARK  151  A    between atoms: _356  and  _359
REMARK  152  A    between atoms: _359  and  _360
REMARK  153  A    between atoms: _360  and  _361
REMARK  154  A    between atoms: _363  and  _365
REMARK  155  A    between atoms: _365  and  _366
REMARK  156  A    between atoms: _365  and  _368
REMARK  157  A    between atoms: _368  and  _369
REMARK  158  A    between atoms: _369  and  _370
REMARK  159  A    between atoms: _373  and  _375
REMARK  160  A    between atoms: _375  and  _376
REMARK  161  A    between atoms: _375  and  _378
REMARK  162  A    between atoms: _378  and  _379
REMARK  163  A    between atoms: _384  and  _386
REMARK  164  A    between atoms: _386  and  _387
REMARK  165  A    between atoms: _386  and  _389
REMARK  166  A    between atoms: _389  and  _390
REMARK  167  A    between atoms: _396  and  _398
REMARK  168  A    between atoms: _398  and  _399
REMARK  169  A    between atoms: _398  and  _401
REMARK  170  A    between atoms: _401  and  _402
REMARK  171  A    between atoms: _407  and  _408
REMARK  172  A    between atoms: _410  and  _412
REMARK  173  A    between atoms: _412  and  _413
REMARK  174  A    between atoms: _412  and  _415
REMARK  175  A    between atoms: _415  and  _416
REMARK  176  A    between atoms: _421  and  _422
REMARK  177  A    between atoms: _424  and  _426
REMARK  178  A    between atoms: _426  and  _427
REMARK  179  A    between atoms: _426  and  _429
REMARK  180  A    between atoms: _430  and  _431
REMARK  181  A    between atoms: _431  and  _432
REMARK  182  A    between atoms: _441  and  _443
REMARK  183  A    between atoms: _443  and  _444
REMARK  184  A    between atoms: _443  and  _446
REMARK  185  A    between atoms: _446  and  _447
REMARK  186  A    between atoms: _447  and  _448
REMARK  187  A    between atoms: _450  and  _452
REMARK  188  A    between atoms: _452  and  _453
REMARK  189  A    between atoms: _452  and  _455
REMARK  190  A    between atoms: _455  and  _456
REMARK  191  A    between atoms: _456  and  _457
REMARK  192  A    between atoms: _462  and  _464
REMARK  193  A    between atoms: _464  and  _465
REMARK  194  A    between atoms: _464  and  _467
REMARK  195  A    between atoms: _467  and  _468
REMARK                            x       y       z     vdW  Elec       q    Type
REMARK                         _______ _______ _______ _____ _____    ______ ____
ROOT
ATOM      1  O   HOH     1       9.993  14.415  24.436  0.00  0.00    +0.000 OA
ENDROOT
TORSDOF 0
REMARK  Name = ../refined-set-2016/4k5p/4k5p_pocket.pdb
REMARK  195 active torsions:
REMARK  status: ('A' for Active; 'I' for Inactive)
REMARK    1  A    between atoms: _1  and  _3
REMARK    2  A    between atoms: _3  and  _4
REMARK    3  A    between atoms: _3  and  _6
REMARK    4  A    between atoms: _6  and  _7
REMARK    5  A    between atoms: _10  and  _12
REMARK    6  A    between atoms: _12  and  _13
REMARK    7  A    between atoms: _12  and  _15
REMARK    8  A    between atoms: _15  and  _16
REMARK    9  A    between atoms: _19  and  _21
REMARK   10  A    between atoms: _21  and  _22
REMARK   11  A    between atoms: _21  and  _24
REMARK   12  A    between atoms: _24  and  _25
REMARK   13  A    between atoms: _25  and  _26
REMARK   14  A    between atoms: _31  and  _33
REMARK   15  A    between atoms: _33  and  _34
REMARK   16  A    between atoms: _33  and  _36
REMARK   17  A    between atoms: _38  and  _40
REMARK   18  A    between atoms: _40  and  _41
REMARK   19  A    between atoms: _40  and  _43
REMARK   20  A    between atoms: _43  and  _44
REMARK   21  A    between atoms: _44  and  _45
REMARK   22  A    between atoms: _48  and  _50
REMARK   23  A    between atoms: _50  and  _51
REMARK   24  A    between atoms: _54  and  _56
REMARK   25  A    between atoms: _56  and  _57
REMARK   26  A    between atoms: _56  and  _59
REMARK   27  A    between atoms: _59  and  _60
REMARK   28  A    between atoms: _63  and  _65
REMARK   29  A    between atoms: _65  and  _66
REMARK   30  A    between atoms: _68  and  _70
REMARK   31  A    between atoms: _70  and  _71
REMARK   32  A    between atoms: _70  and  _73
REMARK   33  A    between atoms: _73  and  _74
REMARK   34  A    between atoms: _79  and  _80
REMARK   35  A    between atoms: _82  and  _84
REMARK   36  A    between atoms: _84  and  _85
REMARK   37  A    between atoms: _84  and  _87
REMARK   38  A    between atoms: _87  and  _88
REMARK   39  A    between atoms: _91  and  _93
REMARK   40  A    between atoms: _93  and  _94
REMARK   41  A    between atoms: _93  and  _96
REMARK   42  A    between atoms: _96  and  _97
REMARK   43  A    between atoms: _103  and  _105
REMARK   44  A    between atoms: _105  and  _106
REMARK   45  A    between atoms: _105  and  _108
REMARK   46  A    between atoms: _108  and  _109
REMARK   47  A    between atoms: _114  and  _116
REMARK   48  A    between atoms: _116  and  _117
REMARK   49  A    between atoms: _116  and  _119
REMARK   50  A    between atoms: _122  and  _124
REMARK   51  A    between atoms: _124  and  _125
REMARK   52  A    between atoms: _127  and  _129
REMARK   53  A    between atoms: _129  and  _130
REMARK   54  A    between atoms: _133  and  _135
REMARK   55  A    between atoms: _135  and  _136
REMARK   56  A    between atoms: _135  and  _138
REMARK   57  A    between atoms: _138  and  _139
REMARK   58  A    between atoms: _139  and  _140
REMARK   59  A    between atoms: _142  and  _144
REMARK   60  A    between atoms: _144  and  _145
REMARK   61  A    between atoms: _144  and  _147
REMARK   62  A    between atoms: _147  and  _148
REMARK   63  A    between atoms: _148  and  _149
REMARK   64  A    between atoms: _152  and  _154
REMARK   65  A    between atoms: _154  and  _155
REMARK   66  A    between atoms: _154  and  _157
REMARK   67  A    between atoms: _157  and  _158
REMARK   68  A    between atoms: _163  and  _165
REMARK   69  A    between atoms: _165  and  _166
REMARK   70  A    between atoms: _165  and  _168
REMARK   71  A    between atoms: _168  and  _169
REMARK   72  A    between atoms: _172  and  _174
REMARK   73  A    between atoms: _174  and  _175
REMARK   74  A    between atoms: _174  and  _177
REMARK   75  A    between atoms: _177  and  _178
REMARK   76  A    between atoms: _183  and  _185
REMARK   77  A    between atoms: _185  and  _186
REMARK   78  A    between atoms: _185  and  _188
REMARK   79  A    between atoms: _188  and  _189
REMARK   80  A    between atoms: _189  and  _190
REMARK   81  A    between atoms: _190  and  _191
REMARK   82  A    between atoms: _200  and  _202
REMARK   83  A    between atoms: _202  and  _203
REMARK   84  A    between atoms: _202  and  _205
REMARK   85  A    between atoms: _208  and  _210
REMARK   86  A    between atoms: _210  and  _211
REMARK   87  A    between atoms: _210  and  _213
REMARK   88  A    between atoms: _213  and  _214
REMARK   89  A    between atoms: _218  and  ZN_473
REMARK   90  A    between atoms: _219  and  _221
REMARK   91  A    between atoms: _221  and  _222
REMARK   92  A    between atoms: _221  and  _224
REMARK   93  A    between atoms: _224  and  _225
REMARK   94  A    between atoms: _225  and  _226
REMARK   95  A    between atoms: _229  and  _231
REMARK   96  A    between atoms: _231  and  _232
REMARK   97  A    between atoms: _231  and  _234
REMARK   98  A    between atoms: _234  and  _235
REMARK   99  A    between atoms: _240  and  _241
REMARK  100  A    between atoms: _243  and  _245
REMARK  101  A    between atoms: _245  and  _246
REMARK  102  A    between atoms: _245  and  _248
REMARK  103  A    between atoms: _248  and  _249
REMARK  104  A    between atoms: _253  and  ZN_473
REMARK  105  A    between atoms: _254  and  _256
REMARK  106  A    between atoms: _256  and  _257
REMARK  107  A    between atoms: _256  and  _259
REMARK  108  A    between atoms: _259  and  _260
REMARK  109  A    between atoms: _263  and  _265
REMARK  110  A    between atoms: _265  and  _266
REMARK  111  A    between atoms: _265  and  _268
REMARK  112  A    between atoms: _268  and  _269
REMARK  113  A    between atoms: _274  and  _276
REMARK  114  A    between atoms: _276  and  _277
REMARK  115  A    between atoms: _276  and  _279
REMARK  116  A    between atoms: _279  and  _280
REMARK  117  A    between atoms: _290  and  _292
REMARK  118  A    between atoms: _292  and  _293
REMARK  119  A    between atoms: _292  and  _295
REMARK  120  A    between atoms: _295  and  _296
REMARK  121  A    between atoms: _299  and  _301
REMARK  122  A    between atoms: _301  and  _302
REMARK  123  A    between atoms: _301  and  _304
REMARK  124  A    between atoms: _304  and  _305
REMARK  125  A    between atoms: _305  and  _306
REMARK  126  A    between atoms: _306  and  _307
REMARK  127  A    between atoms: _307  and  _308
REMARK  128  A    between atoms: _312  and  _314
REMARK  129  A    between atoms: _314  and  _315
REMARK  130  A    between atoms: _314  and  _317
REMARK  131  A    between atoms: _317  and  _318
REMARK  132  A    between atoms: _318  and  _319
REMARK  133  A    between atoms: _319  and  _320
REMARK  134  A    between atoms: _320  and  ZN_473
REMARK  135  A    between atoms: _322  and  _324
REMARK  136  A    between atoms: _324  and  _325
REMARK  137  A    between atoms: _327  and  _329
REMARK  138  A    between atoms: _329  and  _330
REMARK  139  A    between atoms: _329  and  _332
REMARK  140  A    between atoms: _332  and  _333
REMARK  141  A    between atoms: _336  and  _338
REMARK  142  A    between atoms: _338  and  _339
REMARK  143  A    between atoms: _338  and  _341
REMARK  144  A    between atoms: _344  and  _346
REMARK  145  A    between atoms: _346  and  _347
REMARK  146  A    between atoms: _346  and  _349
REMARK  147  A    between atoms: _349  and  _350
REMARK  148  A    between atoms: _350  and  _351
REMARK  149  A    between atoms: _354  and  _356
REMARK  150  A    between atoms: _356  and  _357
REMARK  151  A    between atoms: _356  and  _359
REMARK  152  A    between atoms: _359  and  _360
REMARK  153  A    between atoms: _360  and  _361
REMARK  154  A    between atoms: _363  and  _365
REMARK  155  A    between atoms: _365  and  _366
REMARK  156  A    between atoms: _365  and  _368
REMARK  157  A    between atoms: _368  and  _369
REMARK  158  A    between atoms: _369  and  _370
REMARK  159  A    between atoms: _373  and  _375
REMARK  160  A    between atoms: _375  and  _376
REMARK  161  A    between atoms: _375  and  _378
REMARK  162  A    between atoms: _378  and  _379
REMARK  163  A    between atoms: _384  and  _386
REMARK  164  A    between atoms: _386  and  _387
REMARK  165  A    between atoms: _386  and  _389
REMARK  166  A    between atoms: _389  and  _390
REMARK  167  A    between atoms: _396  and  _398
REMARK  168  A    between atoms: _398  and  _399
REMARK  169  A    between atoms: _398  and  _401
REMARK  170  A    between atoms: _401  and  _402
REMARK  171  A    between atoms: _407  and  _408
REMARK  172  A    between atoms: _410  and  _412
REMARK  173  A    between atoms: _412  and  _413
REMARK  174  A    between atoms: _412  and  _415
REMARK  175  A    between atoms: _415  and  _416
REMARK  176  A    between atoms: _421  and  _422
REMARK  177  A    between atoms: _424  and  _426
REMARK  178  A    between atoms: _426  and  _427
REMARK  179  A    between atoms: _426  and  _429
REMARK  180  A    between atoms: _430  and  _431
REMARK  181  A    between atoms: _431  and  _432
REMARK  182  A    between atoms: _441  and  _443
REMARK  183  A    between atoms: _443  and  _444
REMARK  184  A    between atoms: _443  and  _446
REMARK  185  A    between atoms: _446  and  _447
REMARK  186  A    between atoms: _447  and  _448
REMARK  187  A    between atoms: _450  and  _452
REMARK  188  A    between atoms: _452  and  _453
REMARK  189  A    between atoms: _452  and  _455
REMARK  190  A    between atoms: _455  and  _456
REMARK  191  A    between atoms: _456  and  _457
REMARK  192  A    between atoms: _462  and  _464
REMARK  193  A    between atoms: _464  and  _465
REMARK  194  A    between atoms: _464  and  _467
REMARK  195  A    between atoms: _467  and  _468
REMARK                            x       y       z     vdW  Elec       q    Type
REMARK                         _______ _______ _______ _____ _____    ______ ____
ROOT
ATOM      1  O   HOH     1      16.940  10.622  12.036  0.00  0.00    +0.000 OA
ENDROOT
TORSDOF 0
REMARK  Name = ../refined-set-2016/4k5p/4k5p_pocket.pdb
REMARK  195 active torsions:
REMARK  status: ('A' for Active; 'I' for Inactive)
REMARK    1  A    between atoms: _1  and  _3
REMARK    2  A    between atoms: _3  and  _4
REMARK    3  A    between atoms: _3  and  _6
REMARK    4  A    between atoms: _6  and  _7
REMARK    5  A    between atoms: _10  and  _12
REMARK    6  A    between atoms: _12  and  _13
REMARK    7  A    between atoms: _12  and  _15
REMARK    8  A    between atoms: _15  and  _16
REMARK    9  A    between atoms: _19  and  _21
REMARK   10  A    between atoms: _21  and  _22
REMARK   11  A    between atoms: _21  and  _24
REMARK   12  A    between atoms: _24  and  _25
REMARK   13  A    between atoms: _25  and  _26
REMARK   14  A    between atoms: _31  and  _33
REMARK   15  A    between atoms: _33  and  _34
REMARK   16  A    between atoms: _33  and  _36
REMARK   17  A    between atoms: _38  and  _40
REMARK   18  A    between atoms: _40  and  _41
REMARK   19  A    between atoms: _40  and  _43
REMARK   20  A    between atoms: _43  and  _44
REMARK   21  A    between atoms: _44  and  _45
REMARK   22  A    between atoms: _48  and  _50
REMARK   23  A    between atoms: _50  and  _51
REMARK   24  A    between atoms: _54  and  _56
REMARK   25  A    between atoms: _56  and  _57
REMARK   26  A    between atoms: _56  and  _59
REMARK   27  A    between atoms: _59  and  _60
REMARK   28  A    between atoms: _63  and  _65
REMARK   29  A    between atoms: _65  and  _66
REMARK   30  A    between atoms: _68  and  _70
REMARK   31  A    between atoms: _70  and  _71
REMARK   32  A    between atoms: _70  and  _73
REMARK   33  A    between atoms: _73  and  _74
REMARK   34  A    between atoms: _79  and  _80
REMARK   35  A    between atoms: _82  and  _84
REMARK   36  A    between atoms: _84  and  _85
REMARK   37  A    between atoms: _84  and  _87
REMARK   38  A    between atoms: _87  and  _88
REMARK   39  A    between atoms: _91  and  _93
REMARK   40  A    between atoms: _93  and  _94
REMARK   41  A    between atoms: _93  and  _96
REMARK   42  A    between atoms: _96  and  _97
REMARK   43  A    between atoms: _103  and  _105
REMARK   44  A    between atoms: _105  and  _106
REMARK   45  A    between atoms: _105  and  _108
REMARK   46  A    between atoms: _108  and  _109
REMARK   47  A    between atoms: _114  and  _116
REMARK   48  A    between atoms: _116  and  _117
REMARK   49  A    between atoms: _116  and  _119
REMARK   50  A    between atoms: _122  and  _124
REMARK   51  A    between atoms: _124  and  _125
REMARK   52  A    between atoms: _127  and  _129
REMARK   53  A    between atoms: _129  and  _130
REMARK   54  A    between atoms: _133  and  _135
REMARK   55  A    between atoms: _135  and  _136
REMARK   56  A    between atoms: _135  and  _138
REMARK   57  A    between atoms: _138  and  _139
REMARK   58  A    between atoms: _139  and  _140
REMARK   59  A    between atoms: _142  and  _144
REMARK   60  A    between atoms: _144  and  _145
REMARK   61  A    between atoms: _144  and  _147
REMARK   62  A    between atoms: _147  and  _148
REMARK   63  A    between atoms: _148  and  _149
REMARK   64  A    between atoms: _152  and  _154
REMARK   65  A    between atoms: _154  and  _155
REMARK   66  A    between atoms: _154  and  _157
REMARK   67  A    between atoms: _157  and  _158
REMARK   68  A    between atoms: _163  and  _165
REMARK   69  A    between atoms: _165  and  _166
REMARK   70  A    between atoms: _165  and  _168
REMARK   71  A    between atoms: _168  and  _169
REMARK   72  A    between atoms: _172  and  _174
REMARK   73  A    between atoms: _174  and  _175
REMARK   74  A    between atoms: _174  and  _177
REMARK   75  A    between atoms: _177  and  _178
REMARK   76  A    between atoms: _183  and  _185
REMARK   77  A    between atoms: _185  and  _186
REMARK   78  A    between atoms: _185  and  _188
REMARK   79  A    between atoms: _188  and  _189
REMARK   80  A    between atoms: _189  and  _190
REMARK   81  A    between atoms: _190  and  _191
REMARK   82  A    between atoms: _200  and  _202
REMARK   83  A    between atoms: _202  and  _203
REMARK   84  A    between atoms: _202  and  _205
REMARK   85  A    between atoms: _208  and  _210
REMARK   86  A    between atoms: _210  and  _211
REMARK   87  A    between atoms: _210  and  _213
REMARK   88  A    between atoms: _213  and  _214
REMARK   89  A    between atoms: _218  and  ZN_473
REMARK   90  A    between atoms: _219  and  _221
REMARK   91  A    between atoms: _221  and  _222
REMARK   92  A    between atoms: _221  and  _224
REMARK   93  A    between atoms: _224  and  _225
REMARK   94  A    between atoms: _225  and  _226
REMARK   95  A    between atoms: _229  and  _231
REMARK   96  A    between atoms: _231  and  _232
REMARK   97  A    between atoms: _231  and  _234
REMARK   98  A    between atoms: _234  and  _235
REMARK   99  A    between atoms: _240  and  _241
REMARK  100  A    between atoms: _243  and  _245
REMARK  101  A    between atoms: _245  and  _246
REMARK  102  A    between atoms: _245  and  _248
REMARK  103  A    between atoms: _248  and  _249
REMARK  104  A    between atoms: _253  and  ZN_473
REMARK  105  A    between atoms: _254  and  _256
REMARK  106  A    between atoms: _256  and  _257
REMARK  107  A    between atoms: _256  and  _259
REMARK  108  A    between atoms: _259  and  _260
REMARK  109  A    between atoms: _263  and  _265
REMARK  110  A    between atoms: _265  and  _266
REMARK  111  A    between atoms: _265  and  _268
REMARK  112  A    between atoms: _268  and  _269
REMARK  113  A    between atoms: _274  and  _276
REMARK  114  A    between atoms: _276  and  _277
REMARK  115  A    between atoms: _276  and  _279
REMARK  116  A    between atoms: _279  and  _280
REMARK  117  A    between atoms: _290  and  _292
REMARK  118  A    between atoms: _292  and  _293
REMARK  119  A    between atoms: _292  and  _295
REMARK  120  A    between atoms: _295  and  _296
REMARK  121  A    between atoms: _299  and  _301
REMARK  122  A    between atoms: _301  and  _302
REMARK  123  A    between atoms: _301  and  _304
REMARK  124  A    between atoms: _304  and  _305
REMARK  125  A    between atoms: _305  and  _306
REMARK  126  A    between atoms: _306  and  _307
REMARK  127  A    between atoms: _307  and  _308
REMARK  128  A    between atoms: _312  and  _314
REMARK  129  A    between atoms: _314  and  _315
REMARK  130  A    between atoms: _314  and  _317
REMARK  131  A    between atoms: _317  and  _318
REMARK  132  A    between atoms: _318  and  _319
REMARK  133  A    between atoms: _319  and  _320
REMARK  134  A    between atoms: _320  and  ZN_473
REMARK  135  A    between atoms: _322  and  _324
REMARK  136  A    between atoms: _324  and  _325
REMARK  137  A    between atoms: _327  and  _329
REMARK  138  A    between atoms: _329  and  _330
REMARK  139  A    between atoms: _329  and  _332
REMARK  140  A    between atoms: _332  and  _333
REMARK  141  A    between atoms: _336  and  _338
REMARK  142  A    between atoms: _338  and  _339
REMARK  143  A    between atoms: _338  and  _341
REMARK  144  A    between atoms: _344  and  _346
REMARK  145  A    between atoms: _346  and  _347
REMARK  146  A    between atoms: _346  and  _349
REMARK  147  A    between atoms: _349  and  _350
REMARK  148  A    between atoms: _350  and  _351
REMARK  149  A    between atoms: _354  and  _356
REMARK  150  A    between atoms: _356  and  _357
REMARK  151  A    between atoms: _356  and  _359
REMARK  152  A    between atoms: _359  and  _360
REMARK  153  A    between atoms: _360  and  _361
REMARK  154  A    between atoms: _363  and  _365
REMARK  155  A    between atoms: _365  and  _366
REMARK  156  A    between atoms: _365  and  _368
REMARK  157  A    between atoms: _368  and  _369
REMARK  158  A    between atoms: _369  and  _370
REMARK  159  A    between atoms: _373  and  _375
REMARK  160  A    between atoms: _375  and  _376
REMARK  161  A    between atoms: _375  and  _378
REMARK  162  A    between atoms: _378  and  _379
REMARK  163  A    between atoms: _384  and  _386
REMARK  164  A    between atoms: _386  and  _387
REMARK  165  A    between atoms: _386  and  _389
REMARK  166  A    between atoms: _389  and  _390
REMARK  167  A    between atoms: _396  and  _398
REMARK  168  A    between atoms: _398  and  _399
REMARK  169  A    between atoms: _398  and  _401
REMARK  170  A    between atoms: _401  and  _402
REMARK  171  A    between atoms: _407  and  _408
REMARK  172  A    between atoms: _410  and  _412
REMARK  173  A    between atoms: _412  and  _413
REMARK  174  A    between atoms: _412  and  _415
REMARK  175  A    between atoms: _415  and  _416
REMARK  176  A    between atoms: _421  and  _422
REMARK  177  A    between atoms: _424  and  _426
REMARK  178  A    between atoms: _426  and  _427
REMARK  179  A    between atoms: _426  and  _429
REMARK  180  A    between atoms: _430  and  _431
REMARK  181  A    between atoms: _431  and  _432
REMARK  182  A    between atoms: _441  and  _443
REMARK  183  A    between atoms: _443  and  _444
REMARK  184  A    between atoms: _443  and  _446
REMARK  185  A    between atoms: _446  and  _447
REMARK  186  A    between atoms: _447  and  _448
REMARK  187  A    between atoms: _450  and  _452
REMARK  188  A    between atoms: _452  and  _453
REMARK  189  A    between atoms: _452  and  _455
REMARK  190  A    between atoms: _455  and  _456
REMARK  191  A    between atoms: _456  and  _457
REMARK  192  A    between atoms: _462  and  _464
REMARK  193  A    between atoms: _464  and  _465
REMARK  194  A    between atoms: _464  and  _467
REMARK  195  A    between atoms: _467  and  _468
REMARK                            x       y       z     vdW  Elec       q    Type
REMARK                         _______ _______ _______ _____ _____    ______ ____
ROOT
ATOM      1  O   HOH     1      16.528  14.234  18.126  0.00  0.00    +0.000 OA
ENDROOT
TORSDOF 0
REMARK  Name = ../refined-set-2016/4k5p/4k5p_pocket.pdb
REMARK  195 active torsions:
REMARK  status: ('A' for Active; 'I' for Inactive)
REMARK    1  A    between atoms: _1  and  _3
REMARK    2  A    between atoms: _3  and  _4
REMARK    3  A    between atoms: _3  and  _6
REMARK    4  A    between atoms: _6  and  _7
REMARK    5  A    between atoms: _10  and  _12
REMARK    6  A    between atoms: _12  and  _13
REMARK    7  A    between atoms: _12  and  _15
REMARK    8  A    between atoms: _15  and  _16
REMARK    9  A    between atoms: _19  and  _21
REMARK   10  A    between atoms: _21  and  _22
REMARK   11  A    between atoms: _21  and  _24
REMARK   12  A    between atoms: _24  and  _25
REMARK   13  A    between atoms: _25  and  _26
REMARK   14  A    between atoms: _31  and  _33
REMARK   15  A    between atoms: _33  and  _34
REMARK   16  A    between atoms: _33  and  _36
REMARK   17  A    between atoms: _38  and  _40
REMARK   18  A    between atoms: _40  and  _41
REMARK   19  A    between atoms: _40  and  _43
REMARK   20  A    between atoms: _43  and  _44
REMARK   21  A    between atoms: _44  and  _45
REMARK   22  A    between atoms: _48  and  _50
REMARK   23  A    between atoms: _50  and  _51
REMARK   24  A    between atoms: _54  and  _56
REMARK   25  A    between atoms: _56  and  _57
REMARK   26  A    between atoms: _56  and  _59
REMARK   27  A    between atoms: _59  and  _60
REMARK   28  A    between atoms: _63  and  _65
REMARK   29  A    between atoms: _65  and  _66
REMARK   30  A    between atoms: _68  and  _70
REMARK   31  A    between atoms: _70  and  _71
REMARK   32  A    between atoms: _70  and  _73
REMARK   33  A    between atoms: _73  and  _74
REMARK   34  A    between atoms: _79  and  _80
REMARK   35  A    between atoms: _82  and  _84
REMARK   36  A    between atoms: _84  and  _85
REMARK   37  A    between atoms: _84  and  _87
REMARK   38  A    between atoms: _87  and  _88
REMARK   39  A    between atoms: _91  and  _93
REMARK   40  A    between atoms: _93  and  _94
REMARK   41  A    between atoms: _93  and  _96
REMARK   42  A    between atoms: _96  and  _97
REMARK   43  A    between atoms: _103  and  _105
REMARK   44  A    between atoms: _105  and  _106
REMARK   45  A    between atoms: _105  and  _108
REMARK   46  A    between atoms: _108  and  _109
REMARK   47  A    between atoms: _114  and  _116
REMARK   48  A    between atoms: _116  and  _117
REMARK   49  A    between atoms: _116  and  _119
REMARK   50  A    between atoms: _122  and  _124
REMARK   51  A    between atoms: _124  and  _125
REMARK   52  A    between atoms: _127  and  _129
REMARK   53  A    between atoms: _129  and  _130
REMARK   54  A    between atoms: _133  and  _135
REMARK   55  A    between atoms: _135  and  _136
REMARK   56  A    between atoms: _135  and  _138
REMARK   57  A    between atoms: _138  and  _139
REMARK   58  A    between atoms: _139  and  _140
REMARK   59  A    between atoms: _142  and  _144
REMARK   60  A    between atoms: _144  and  _145
REMARK   61  A    between atoms: _144  and  _147
REMARK   62  A    between atoms: _147  and  _148
REMARK   63  A    between atoms: _148  and  _149
REMARK   64  A    between atoms: _152  and  _154
REMARK   65  A    between atoms: _154  and  _155
REMARK   66  A    between atoms: _154  and  _157
REMARK   67  A    between atoms: _157  and  _158
REMARK   68  A    between atoms: _163  and  _165
REMARK   69  A    between atoms: _165  and  _166
REMARK   70  A    between atoms: _165  and  _168
REMARK   71  A    between atoms: _168  and  _169
REMARK   72  A    between atoms: _172  and  _174
REMARK   73  A    between atoms: _174  and  _175
REMARK   74  A    between atoms: _174  and  _177
REMARK   75  A    between atoms: _177  and  _178
REMARK   76  A    between atoms: _183  and  _185
REMARK   77  A    between atoms: _185  and  _186
REMARK   78  A    between atoms: _185  and  _188
REMARK   79  A    between atoms: _188  and  _189
REMARK   80  A    between atoms: _189  and  _190
REMARK   81  A    between atoms: _190  and  _191
REMARK   82  A    between atoms: _200  and  _202
REMARK   83  A    between atoms: _202  and  _203
REMARK   84  A    between atoms: _202  and  _205
REMARK   85  A    between atoms: _208  and  _210
REMARK   86  A    between atoms: _210  and  _211
REMARK   87  A    between atoms: _210  and  _213
REMARK   88  A    between atoms: _213  and  _214
REMARK   89  A    between atoms: _218  and  ZN_473
REMARK   90  A    between atoms: _219  and  _221
REMARK   91  A    between atoms: _221  and  _222
REMARK   92  A    between atoms: _221  and  _224
REMARK   93  A    between atoms: _224  and  _225
REMARK   94  A    between atoms: _225  and  _226
REMARK   95  A    between atoms: _229  and  _231
REMARK   96  A    between atoms: _231  and  _232
REMARK   97  A    between atoms: _231  and  _234
REMARK   98  A    between atoms: _234  and  _235
REMARK   99  A    between atoms: _240  and  _241
REMARK  100  A    between atoms: _243  and  _245
REMARK  101  A    between atoms: _245  and  _246
REMARK  102  A    between atoms: _245  and  _248
REMARK  103  A    between atoms: _248  and  _249
REMARK  104  A    between atoms: _253  and  ZN_473
REMARK  105  A    between atoms: _254  and  _256
REMARK  106  A    between atoms: _256  and  _257
REMARK  107  A    between atoms: _256  and  _259
REMARK  108  A    between atoms: _259  and  _260
REMARK  109  A    between atoms: _263  and  _265
REMARK  110  A    between atoms: _265  and  _266
REMARK  111  A    between atoms: _265  and  _268
REMARK  112  A    between atoms: _268  and  _269
REMARK  113  A    between atoms: _274  and  _276
REMARK  114  A    between atoms: _276  and  _277
REMARK  115  A    between atoms: _276  and  _279
REMARK  116  A    between atoms: _279  and  _280
REMARK  117  A    between atoms: _290  and  _292
REMARK  118  A    between atoms: _292  and  _293
REMARK  119  A    between atoms: _292  and  _295
REMARK  120  A    between atoms: _295  and  _296
REMARK  121  A    between atoms: _299  and  _301
REMARK  122  A    between atoms: _301  and  _302
REMARK  123  A    between atoms: _301  and  _304
REMARK  124  A    between atoms: _304  and  _305
REMARK  125  A    between atoms: _305  and  _306
REMARK  126  A    between atoms: _306  and  _307
REMARK  127  A    between atoms: _307  and  _308
REMARK  128  A    between atoms: _312  and  _314
REMARK  129  A    between atoms: _314  and  _315
REMARK  130  A    between atoms: _314  and  _317
REMARK  131  A    between atoms: _317  and  _318
REMARK  132  A    between atoms: _318  and  _319
REMARK  133  A    between atoms: _319  and  _320
REMARK  134  A    between atoms: _320  and  ZN_473
REMARK  135  A    between atoms: _322  and  _324
REMARK  136  A    between atoms: _324  and  _325
REMARK  137  A    between atoms: _327  and  _329
REMARK  138  A    between atoms: _329  and  _330
REMARK  139  A    between atoms: _329  and  _332
REMARK  140  A    between atoms: _332  and  _333
REMARK  141  A    between atoms: _336  and  _338
REMARK  142  A    between atoms: _338  and  _339
REMARK  143  A    between atoms: _338  and  _341
REMARK  144  A    between atoms: _344  and  _346
REMARK  145  A    between atoms: _346  and  _347
REMARK  146  A    between atoms: _346  and  _349
REMARK  147  A    between atoms: _349  and  _350
REMARK  148  A    between atoms: _350  and  _351
REMARK  149  A    between atoms: _354  and  _356
REMARK  150  A    between atoms: _356  and  _357
REMARK  151  A    between atoms: _356  and  _359
REMARK  152  A    between atoms: _359  and  _360
REMARK  153  A    between atoms: _360  and  _361
REMARK  154  A    between atoms: _363  and  _365
REMARK  155  A    between atoms: _365  and  _366
REMARK  156  A    between atoms: _365  and  _368
REMARK  157  A    between atoms: _368  and  _369
REMARK  158  A    between atoms: _369  and  _370
REMARK  159  A    between atoms: _373  and  _375
REMARK  160  A    between atoms: _375  and  _376
REMARK  161  A    between atoms: _375  and  _378
REMARK  162  A    between atoms: _378  and  _379
REMARK  163  A    between atoms: _384  and  _386
REMARK  164  A    between atoms: _386  and  _387
REMARK  165  A    between atoms: _386  and  _389
REMARK  166  A    between atoms: _389  and  _390
REMARK  167  A    between atoms: _396  and  _398
REMARK  168  A    between atoms: _398  and  _399
REMARK  169  A    between atoms: _398  and  _401
REMARK  170  A    between atoms: _401  and  _402
REMARK  171  A    between atoms: _407  and  _408
REMARK  172  A    between atoms: _410  and  _412
REMARK  173  A    between atoms: _412  and  _413
REMARK  174  A    between atoms: _412  and  _415
REMARK  175  A    between atoms: _415  and  _416
REMARK  176  A    between atoms: _421  and  _422
REMARK  177  A    between atoms: _424  and  _426
REMARK  178  A    between atoms: _426  and  _427
REMARK  179  A    between atoms: _426  and  _429
REMARK  180  A    between atoms: _430  and  _431
REMARK  181  A    between atoms: _431  and  _432
REMARK  182  A    between atoms: _441  and  _443
REMARK  183  A    between atoms: _443  and  _444
REMARK  184  A    between atoms: _443  and  _446
REMARK  185  A    between atoms: _446  and  _447
REMARK  186  A    between atoms: _447  and  _448
REMARK  187  A    between atoms: _450  and  _452
REMARK  188  A    between atoms: _452  and  _453
REMARK  189  A    between atoms: _452  and  _455
REMARK  190  A    between atoms: _455  and  _456
REMARK  191  A    between atoms: _456  and  _457
REMARK  192  A    between atoms: _462  and  _464
REMARK  193  A    between atoms: _464  and  _465
REMARK  194  A    between atoms: _464  and  _467
REMARK  195  A    between atoms: _467  and  _468
REMARK                            x       y       z     vdW  Elec       q    Type
REMARK                         _______ _______ _______ _____ _____    ______ ____
ROOT
ATOM      1  O   HOH     1      19.131   7.982  12.346  0.00  0.00    +0.000 OA
ENDROOT
TORSDOF 0
REMARK  Name = ../refined-set-2016/4k5p/4k5p_pocket.pdb
REMARK  195 active torsions:
REMARK  status: ('A' for Active; 'I' for Inactive)
REMARK    1  A    between atoms: _1  and  _3
REMARK    2  A    between atoms: _3  and  _4
REMARK    3  A    between atoms: _3  and  _6
REMARK    4  A    between atoms: _6  and  _7
REMARK    5  A    between atoms: _10  and  _12
REMARK    6  A    between atoms: _12  and  _13
REMARK    7  A    between atoms: _12  and  _15
REMARK    8  A    between atoms: _15  and  _16
REMARK    9  A    between atoms: _19  and  _21
REMARK   10  A    between atoms: _21  and  _22
REMARK   11  A    between atoms: _21  and  _24
REMARK   12  A    between atoms: _24  and  _25
REMARK   13  A    between atoms: _25  and  _26
REMARK   14  A    between atoms: _31  and  _33
REMARK   15  A    between atoms: _33  and  _34
REMARK   16  A    between atoms: _33  and  _36
REMARK   17  A    between atoms: _38  and  _40
REMARK   18  A    between atoms: _40  and  _41
REMARK   19  A    between atoms: _40  and  _43
REMARK   20  A    between atoms: _43  and  _44
REMARK   21  A    between atoms: _44  and  _45
REMARK   22  A    between atoms: _48  and  _50
REMARK   23  A    between atoms: _50  and  _51
REMARK   24  A    between atoms: _54  and  _56
REMARK   25  A    between atoms: _56  and  _57
REMARK   26  A    between atoms: _56  and  _59
REMARK   27  A    between atoms: _59  and  _60
REMARK   28  A    between atoms: _63  and  _65
REMARK   29  A    between atoms: _65  and  _66
REMARK   30  A    between atoms: _68  and  _70
REMARK   31  A    between atoms: _70  and  _71
REMARK   32  A    between atoms: _70  and  _73
REMARK   33  A    between atoms: _73  and  _74
REMARK   34  A    between atoms: _79  and  _80
REMARK   35  A    between atoms: _82  and  _84
REMARK   36  A    between atoms: _84  and  _85
REMARK   37  A    between atoms: _84  and  _87
REMARK   38  A    between atoms: _87  and  _88
REMARK   39  A    between atoms: _91  and  _93
REMARK   40  A    between atoms: _93  and  _94
REMARK   41  A    between atoms: _93  and  _96
REMARK   42  A    between atoms: _96  and  _97
REMARK   43  A    between atoms: _103  and  _105
REMARK   44  A    between atoms: _105  and  _106
REMARK   45  A    between atoms: _105  and  _108
REMARK   46  A    between atoms: _108  and  _109
REMARK   47  A    between atoms: _114  and  _116
REMARK   48  A    between atoms: _116  and  _117
REMARK   49  A    between atoms: _116  and  _119
REMARK   50  A    between atoms: _122  and  _124
REMARK   51  A    between atoms: _124  and  _125
REMARK   52  A    between atoms: _127  and  _129
REMARK   53  A    between atoms: _129  and  _130
REMARK   54  A    between atoms: _133  and  _135
REMARK   55  A    between atoms: _135  and  _136
REMARK   56  A    between atoms: _135  and  _138
REMARK   57  A    between atoms: _138  and  _139
REMARK   58  A    between atoms: _139  and  _140
REMARK   59  A    between atoms: _142  and  _144
REMARK   60  A    between atoms: _144  and  _145
REMARK   61  A    between atoms: _144  and  _147
REMARK   62  A    between atoms: _147  and  _148
REMARK   63  A    between atoms: _148  and  _149
REMARK   64  A    between atoms: _152  and  _154
REMARK   65  A    between atoms: _154  and  _155
REMARK   66  A    between atoms: _154  and  _157
REMARK   67  A    between atoms: _157  and  _158
REMARK   68  A    between atoms: _163  and  _165
REMARK   69  A    between atoms: _165  and  _166
REMARK   70  A    between atoms: _165  and  _168
REMARK   71  A    between atoms: _168  and  _169
REMARK   72  A    between atoms: _172  and  _174
REMARK   73  A    between atoms: _174  and  _175
REMARK   74  A    between atoms: _174  and  _177
REMARK   75  A    between atoms: _177  and  _178
REMARK   76  A    between atoms: _183  and  _185
REMARK   77  A    between atoms: _185  and  _186
REMARK   78  A    between atoms: _185  and  _188
REMARK   79  A    between atoms: _188  and  _189
REMARK   80  A    between atoms: _189  and  _190
REMARK   81  A    between atoms: _190  and  _191
REMARK   82  A    between atoms: _200  and  _202
REMARK   83  A    between atoms: _202  and  _203
REMARK   84  A    between atoms: _202  and  _205
REMARK   85  A    between atoms: _208  and  _210
REMARK   86  A    between atoms: _210  and  _211
REMARK   87  A    between atoms: _210  and  _213
REMARK   88  A    between atoms: _213  and  _214
REMARK   89  A    between atoms: _218  and  ZN_473
REMARK   90  A    between atoms: _219  and  _221
REMARK   91  A    between atoms: _221  and  _222
REMARK   92  A    between atoms: _221  and  _224
REMARK   93  A    between atoms: _224  and  _225
REMARK   94  A    between atoms: _225  and  _226
REMARK   95  A    between atoms: _229  and  _231
REMARK   96  A    between atoms: _231  and  _232
REMARK   97  A    between atoms: _231  and  _234
REMARK   98  A    between atoms: _234  and  _235
REMARK   99  A    between atoms: _240  and  _241
REMARK  100  A    between atoms: _243  and  _245
REMARK  101  A    between atoms: _245  and  _246
REMARK  102  A    between atoms: _245  and  _248
REMARK  103  A    between atoms: _248  and  _249
REMARK  104  A    between atoms: _253  and  ZN_473
REMARK  105  A    between atoms: _254  and  _256
REMARK  106  A    between atoms: _256  and  _257
REMARK  107  A    between atoms: _256  and  _259
REMARK  108  A    between atoms: _259  and  _260
REMARK  109  A    between atoms: _263  and  _265
REMARK  110  A    between atoms: _265  and  _266
REMARK  111  A    between atoms: _265  and  _268
REMARK  112  A    between atoms: _268  and  _269
REMARK  113  A    between atoms: _274  and  _276
REMARK  114  A    between atoms: _276  and  _277
REMARK  115  A    between atoms: _276  and  _279
REMARK  116  A    between atoms: _279  and  _280
REMARK  117  A    between atoms: _290  and  _292
REMARK  118  A    between atoms: _292  and  _293
REMARK  119  A    between atoms: _292  and  _295
REMARK  120  A    between atoms: _295  and  _296
REMARK  121  A    between atoms: _299  and  _301
REMARK  122  A    between atoms: _301  and  _302
REMARK  123  A    between atoms: _301  and  _304
REMARK  124  A    between atoms: _304  and  _305
REMARK  125  A    between atoms: _305  and  _306
REMARK  126  A    between atoms: _306  and  _307
REMARK  127  A    between atoms: _307  and  _308
REMARK  128  A    between atoms: _312  and  _314
REMARK  129  A    between atoms: _314  and  _315
REMARK  130  A    between atoms: _314  and  _317
REMARK  131  A    between atoms: _317  and  _318
REMARK  132  A    between atoms: _318  and  _319
REMARK  133  A    between atoms: _319  and  _320
REMARK  134  A    between atoms: _320  and  ZN_473
REMARK  135  A    between atoms: _322  and  _324
REMARK  136  A    between atoms: _324  and  _325
REMARK  137  A    between atoms: _327  and  _329
REMARK  138  A    between atoms: _329  and  _330
REMARK  139  A    between atoms: _329  and  _332
REMARK  140  A    between atoms: _332  and  _333
REMARK  141  A    between atoms: _336  and  _338
REMARK  142  A    between atoms: _338  and  _339
REMARK  143  A    between atoms: _338  and  _341
REMARK  144  A    between atoms: _344  and  _346
REMARK  145  A    between atoms: _346  and  _347
REMARK  146  A    between atoms: _346  and  _349
REMARK  147  A    between atoms: _349  and  _350
REMARK  148  A    between atoms: _350  and  _351
REMARK  149  A    between atoms: _354  and  _356
REMARK  150  A    between atoms: _356  and  _357
REMARK  151  A    between atoms: _356  and  _359
REMARK  152  A    between atoms: _359  and  _360
REMARK  153  A    between atoms: _360  and  _361
REMARK  154  A    between atoms: _363  and  _365
REMARK  155  A    between atoms: _365  and  _366
REMARK  156  A    between atoms: _365  and  _368
REMARK  157  A    between atoms: _368  and  _369
REMARK  158  A    between atoms: _369  and  _370
REMARK  159  A    between atoms: _373  and  _375
REMARK  160  A    between atoms: _375  and  _376
REMARK  161  A    between atoms: _375  and  _378
REMARK  162  A    between atoms: _378  and  _379
REMARK  163  A    between atoms: _384  and  _386
REMARK  164  A    between atoms: _386  and  _387
REMARK  165  A    between atoms: _386  and  _389
REMARK  166  A    between atoms: _389  and  _390
REMARK  167  A    between atoms: _396  and  _398
REMARK  168  A    between atoms: _398  and  _399
REMARK  169  A    between atoms: _398  and  _401
REMARK  170  A    between atoms: _401  and  _402
REMARK  171  A    between atoms: _407  and  _408
REMARK  172  A    between atoms: _410  and  _412
REMARK  173  A    between atoms: _412  and  _413
REMARK  174  A    between atoms: _412  and  _415
REMARK  175  A    between atoms: _415  and  _416
REMARK  176  A    between atoms: _421  and  _422
REMARK  177  A    between atoms: _424  and  _426
REMARK  178  A    between atoms: _426  and  _427
REMARK  179  A    between atoms: _426  and  _429
REMARK  180  A    between atoms: _430  and  _431
REMARK  181  A    between atoms: _431  and  _432
REMARK  182  A    between atoms: _441  and  _443
REMARK  183  A    between atoms: _443  and  _444
REMARK  184  A    between atoms: _443  and  _446
REMARK  185  A    between atoms: _446  and  _447
REMARK  186  A    between atoms: _447  and  _448
REMARK  187  A    between atoms: _450  and  _452
REMARK  188  A    between atoms: _452  and  _453
REMARK  189  A    between atoms: _452  and  _455
REMARK  190  A    between atoms: _455  and  _456
REMARK  191  A    between atoms: _456  and  _457
REMARK  192  A    between atoms: _462  and  _464
REMARK  193  A    between atoms: _464  and  _465
REMARK  194  A    between atoms: _464  and  _467
REMARK  195  A    between atoms: _467  and  _468
REMARK                            x       y       z     vdW  Elec       q    Type
REMARK                         _______ _______ _______ _____ _____    ______ ____
ROOT
ATOM      1  O   HOH     1      14.477  19.808  15.755  0.00  0.00    +0.000 OA
ENDROOT
TORSDOF 0
REMARK  Name = ../refined-set-2016/4k5p/4k5p_pocket.pdb
REMARK  195 active torsions:
REMARK  status: ('A' for Active; 'I' for Inactive)
REMARK    1  A    between atoms: _1  and  _3
REMARK    2  A    between atoms: _3  and  _4
REMARK    3  A    between atoms: _3  and  _6
REMARK    4  A    between atoms: _6  and  _7
REMARK    5  A    between atoms: _10  and  _12
REMARK    6  A    between atoms: _12  and  _13
REMARK    7  A    between atoms: _12  and  _15
REMARK    8  A    between atoms: _15  and  _16
REMARK    9  A    between atoms: _19  and  _21
REMARK   10  A    between atoms: _21  and  _22
REMARK   11  A    between atoms: _21  and  _24
REMARK   12  A    between atoms: _24  and  _25
REMARK   13  A    between atoms: _25  and  _26
REMARK   14  A    between atoms: _31  and  _33
REMARK   15  A    between atoms: _33  and  _34
REMARK   16  A    between atoms: _33  and  _36
REMARK   17  A    between atoms: _38  and  _40
REMARK   18  A    between atoms: _40  and  _41
REMARK   19  A    between atoms: _40  and  _43
REMARK   20  A    between atoms: _43  and  _44
REMARK   21  A    between atoms: _44  and  _45
REMARK   22  A    between atoms: _48  and  _50
REMARK   23  A    between atoms: _50  and  _51
REMARK   24  A    between atoms: _54  and  _56
REMARK   25  A    between atoms: _56  and  _57
REMARK   26  A    between atoms: _56  and  _59
REMARK   27  A    between atoms: _59  and  _60
REMARK   28  A    between atoms: _63  and  _65
REMARK   29  A    between atoms: _65  and  _66
REMARK   30  A    between atoms: _68  and  _70
REMARK   31  A    between atoms: _70  and  _71
REMARK   32  A    between atoms: _70  and  _73
REMARK   33  A    between atoms: _73  and  _74
REMARK   34  A    between atoms: _79  and  _80
REMARK   35  A    between atoms: _82  and  _84
REMARK   36  A    between atoms: _84  and  _85
REMARK   37  A    between atoms: _84  and  _87
REMARK   38  A    between atoms: _87  and  _88
REMARK   39  A    between atoms: _91  and  _93
REMARK   40  A    between atoms: _93  and  _94
REMARK   41  A    between atoms: _93  and  _96
REMARK   42  A    between atoms: _96  and  _97
REMARK   43  A    between atoms: _103  and  _105
REMARK   44  A    between atoms: _105  and  _106
REMARK   45  A    between atoms: _105  and  _108
REMARK   46  A    between atoms: _108  and  _109
REMARK   47  A    between atoms: _114  and  _116
REMARK   48  A    between atoms: _116  and  _117
REMARK   49  A    between atoms: _116  and  _119
REMARK   50  A    between atoms: _122  and  _124
REMARK   51  A    between atoms: _124  and  _125
REMARK   52  A    between atoms: _127  and  _129
REMARK   53  A    between atoms: _129  and  _130
REMARK   54  A    between atoms: _133  and  _135
REMARK   55  A    between atoms: _135  and  _136
REMARK   56  A    between atoms: _135  and  _138
REMARK   57  A    between atoms: _138  and  _139
REMARK   58  A    between atoms: _139  and  _140
REMARK   59  A    between atoms: _142  and  _144
REMARK   60  A    between atoms: _144  and  _145
REMARK   61  A    between atoms: _144  and  _147
REMARK   62  A    between atoms: _147  and  _148
REMARK   63  A    between atoms: _148  and  _149
REMARK   64  A    between atoms: _152  and  _154
REMARK   65  A    between atoms: _154  and  _155
REMARK   66  A    between atoms: _154  and  _157
REMARK   67  A    between atoms: _157  and  _158
REMARK   68  A    between atoms: _163  and  _165
REMARK   69  A    between atoms: _165  and  _166
REMARK   70  A    between atoms: _165  and  _168
REMARK   71  A    between atoms: _168  and  _169
REMARK   72  A    between atoms: _172  and  _174
REMARK   73  A    between atoms: _174  and  _175
REMARK   74  A    between atoms: _174  and  _177
REMARK   75  A    between atoms: _177  and  _178
REMARK   76  A    between atoms: _183  and  _185
REMARK   77  A    between atoms: _185  and  _186
REMARK   78  A    between atoms: _185  and  _188
REMARK   79  A    between atoms: _188  and  _189
REMARK   80  A    between atoms: _189  and  _190
REMARK   81  A    between atoms: _190  and  _191
REMARK   82  A    between atoms: _200  and  _202
REMARK   83  A    between atoms: _202  and  _203
REMARK   84  A    between atoms: _202  and  _205
REMARK   85  A    between atoms: _208  and  _210
REMARK   86  A    between atoms: _210  and  _211
REMARK   87  A    between atoms: _210  and  _213
REMARK   88  A    between atoms: _213  and  _214
REMARK   89  A    between atoms: _218  and  ZN_473
REMARK   90  A    between atoms: _219  and  _221
REMARK   91  A    between atoms: _221  and  _222
REMARK   92  A    between atoms: _221  and  _224
REMARK   93  A    between atoms: _224  and  _225
REMARK   94  A    between atoms: _225  and  _226
REMARK   95  A    between atoms: _229  and  _231
REMARK   96  A    between atoms: _231  and  _232
REMARK   97  A    between atoms: _231  and  _234
REMARK   98  A    between atoms: _234  and  _235
REMARK   99  A    between atoms: _240  and  _241
REMARK  100  A    between atoms: _243  and  _245
REMARK  101  A    between atoms: _245  and  _246
REMARK  102  A    between atoms: _245  and  _248
REMARK  103  A    between atoms: _248  and  _249
REMARK  104  A    between atoms: _253  and  ZN_473
REMARK  105  A    between atoms: _254  and  _256
REMARK  106  A    between atoms: _256  and  _257
REMARK  107  A    between atoms: _256  and  _259
REMARK  108  A    between atoms: _259  and  _260
REMARK  109  A    between atoms: _263  and  _265
REMARK  110  A    between atoms: _265  and  _266
REMARK  111  A    between atoms: _265  and  _268
REMARK  112  A    between atoms: _268  and  _269
REMARK  113  A    between atoms: _274  and  _276
REMARK  114  A    between atoms: _276  and  _277
REMARK  115  A    between atoms: _276  and  _279
REMARK  116  A    between atoms: _279  and  _280
REMARK  117  A    between atoms: _290  and  _292
REMARK  118  A    between atoms: _292  and  _293
REMARK  119  A    between atoms: _292  and  _295
REMARK  120  A    between atoms: _295  and  _296
REMARK  121  A    between atoms: _299  and  _301
REMARK  122  A    between atoms: _301  and  _302
REMARK  123  A    between atoms: _301  and  _304
REMARK  124  A    between atoms: _304  and  _305
REMARK  125  A    between atoms: _305  and  _306
REMARK  126  A    between atoms: _306  and  _307
REMARK  127  A    between atoms: _307  and  _308
REMARK  128  A    between atoms: _312  and  _314
REMARK  129  A    between atoms: _314  and  _315
REMARK  130  A    between atoms: _314  and  _317
REMARK  131  A    between atoms: _317  and  _318
REMARK  132  A    between atoms: _318  and  _319
REMARK  133  A    between atoms: _319  and  _320
REMARK  134  A    between atoms: _320  and  ZN_473
REMARK  135  A    between atoms: _322  and  _324
REMARK  136  A    between atoms: _324  and  _325
REMARK  137  A    between atoms: _327  and  _329
REMARK  138  A    between atoms: _329  and  _330
REMARK  139  A    between atoms: _329  and  _332
REMARK  140  A    between atoms: _332  and  _333
REMARK  141  A    between atoms: _336  and  _338
REMARK  142  A    between atoms: _338  and  _339
REMARK  143  A    between atoms: _338  and  _341
REMARK  144  A    between atoms: _344  and  _346
REMARK  145  A    between atoms: _346  and  _347
REMARK  146  A    between atoms: _346  and  _349
REMARK  147  A    between atoms: _349  and  _350
REMARK  148  A    between atoms: _350  and  _351
REMARK  149  A    between atoms: _354  and  _356
REMARK  150  A    between atoms: _356  and  _357
REMARK  151  A    between atoms: _356  and  _359
REMARK  152  A    between atoms: _359  and  _360
REMARK  153  A    between atoms: _360  and  _361
REMARK  154  A    between atoms: _363  and  _365
REMARK  155  A    between atoms: _365  and  _366
REMARK  156  A    between atoms: _365  and  _368
REMARK  157  A    between atoms: _368  and  _369
REMARK  158  A    between atoms: _369  and  _370
REMARK  159  A    between atoms: _373  and  _375
REMARK  160  A    between atoms: _375  and  _376
REMARK  161  A    between atoms: _375  and  _378
REMARK  162  A    between atoms: _378  and  _379
REMARK  163  A    between atoms: _384  and  _386
REMARK  164  A    between atoms: _386  and  _387
REMARK  165  A    between atoms: _386  and  _389
REMARK  166  A    between atoms: _389  and  _390
REMARK  167  A    between atoms: _396  and  _398
REMARK  168  A    between atoms: _398  and  _399
REMARK  169  A    between atoms: _398  and  _401
REMARK  170  A    between atoms: _401  and  _402
REMARK  171  A    between atoms: _407  and  _408
REMARK  172  A    between atoms: _410  and  _412
REMARK  173  A    between atoms: _412  and  _413
REMARK  174  A    between atoms: _412  and  _415
REMARK  175  A    between atoms: _415  and  _416
REMARK  176  A    between atoms: _421  and  _422
REMARK  177  A    between atoms: _424  and  _426
REMARK  178  A    between atoms: _426  and  _427
REMARK  179  A    between atoms: _426  and  _429
REMARK  180  A    between atoms: _430  and  _431
REMARK  181  A    between atoms: _431  and  _432
REMARK  182  A    between atoms: _441  and  _443
REMARK  183  A    between atoms: _443  and  _444
REMARK  184  A    between atoms: _443  and  _446
REMARK  185  A    between atoms: _446  and  _447
REMARK  186  A    between atoms: _447  and  _448
REMARK  187  A    between atoms: _450  and  _452
REMARK  188  A    between atoms: _452  and  _453
REMARK  189  A    between atoms: _452  and  _455
REMARK  190  A    between atoms: _455  and  _456
REMARK  191  A    between atoms: _456  and  _457
REMARK  192  A    between atoms: _462  and  _464
REMARK  193  A    between atoms: _464  and  _465
REMARK  194  A    between atoms: _464  and  _467
REMARK  195  A    between atoms: _467  and  _468
REMARK                            x       y       z     vdW  Elec       q    Type
REMARK                         _______ _______ _______ _____ _____    ______ ____
ROOT
ATOM      1  O   HOH     1      10.896  18.831  16.245  0.00  0.00    +0.000 OA
ENDROOT
TORSDOF 0
REMARK  Name = ../refined-set-2016/4k5p/4k5p_pocket.pdb
REMARK  195 active torsions:
REMARK  status: ('A' for Active; 'I' for Inactive)
REMARK    1  A    between atoms: _1  and  _3
REMARK    2  A    between atoms: _3  and  _4
REMARK    3  A    between atoms: _3  and  _6
REMARK    4  A    between atoms: _6  and  _7
REMARK    5  A    between atoms: _10  and  _12
REMARK    6  A    between atoms: _12  and  _13
REMARK    7  A    between atoms: _12  and  _15
REMARK    8  A    between atoms: _15  and  _16
REMARK    9  A    between atoms: _19  and  _21
REMARK   10  A    between atoms: _21  and  _22
REMARK   11  A    between atoms: _21  and  _24
REMARK   12  A    between atoms: _24  and  _25
REMARK   13  A    between atoms: _25  and  _26
REMARK   14  A    between atoms: _31  and  _33
REMARK   15  A    between atoms: _33  and  _34
REMARK   16  A    between atoms: _33  and  _36
REMARK   17  A    between atoms: _38  and  _40
REMARK   18  A    between atoms: _40  and  _41
REMARK   19  A    between atoms: _40  and  _43
REMARK   20  A    between atoms: _43  and  _44
REMARK   21  A    between atoms: _44  and  _45
REMARK   22  A    between atoms: _48  and  _50
REMARK   23  A    between atoms: _50  and  _51
REMARK   24  A    between atoms: _54  and  _56
REMARK   25  A    between atoms: _56  and  _57
REMARK   26  A    between atoms: _56  and  _59
REMARK   27  A    between atoms: _59  and  _60
REMARK   28  A    between atoms: _63  and  _65
REMARK   29  A    between atoms: _65  and  _66
REMARK   30  A    between atoms: _68  and  _70
REMARK   31  A    between atoms: _70  and  _71
REMARK   32  A    between atoms: _70  and  _73
REMARK   33  A    between atoms: _73  and  _74
REMARK   34  A    between atoms: _79  and  _80
REMARK   35  A    between atoms: _82  and  _84
REMARK   36  A    between atoms: _84  and  _85
REMARK   37  A    between atoms: _84  and  _87
REMARK   38  A    between atoms: _87  and  _88
REMARK   39  A    between atoms: _91  and  _93
REMARK   40  A    between atoms: _93  and  _94
REMARK   41  A    between atoms: _93  and  _96
REMARK   42  A    between atoms: _96  and  _97
REMARK   43  A    between atoms: _103  and  _105
REMARK   44  A    between atoms: _105  and  _106
REMARK   45  A    between atoms: _105  and  _108
REMARK   46  A    between atoms: _108  and  _109
REMARK   47  A    between atoms: _114  and  _116
REMARK   48  A    between atoms: _116  and  _117
REMARK   49  A    between atoms: _116  and  _119
REMARK   50  A    between atoms: _122  and  _124
REMARK   51  A    between atoms: _124  and  _125
REMARK   52  A    between atoms: _127  and  _129
REMARK   53  A    between atoms: _129  and  _130
REMARK   54  A    between atoms: _133  and  _135
REMARK   55  A    between atoms: _135  and  _136
REMARK   56  A    between atoms: _135  and  _138
REMARK   57  A    between atoms: _138  and  _139
REMARK   58  A    between atoms: _139  and  _140
REMARK   59  A    between atoms: _142  and  _144
REMARK   60  A    between atoms: _144  and  _145
REMARK   61  A    between atoms: _144  and  _147
REMARK   62  A    between atoms: _147  and  _148
REMARK   63  A    between atoms: _148  and  _149
REMARK   64  A    between atoms: _152  and  _154
REMARK   65  A    between atoms: _154  and  _155
REMARK   66  A    between atoms: _154  and  _157
REMARK   67  A    between atoms: _157  and  _158
REMARK   68  A    between atoms: _163  and  _165
REMARK   69  A    between atoms: _165  and  _166
REMARK   70  A    between atoms: _165  and  _168
REMARK   71  A    between atoms: _168  and  _169
REMARK   72  A    between atoms: _172  and  _174
REMARK   73  A    between atoms: _174  and  _175
REMARK   74  A    between atoms: _174  and  _177
REMARK   75  A    between atoms: _177  and  _178
REMARK   76  A    between atoms: _183  and  _185
REMARK   77  A    between atoms: _185  and  _186
REMARK   78  A    between atoms: _185  and  _188
REMARK   79  A    between atoms: _188  and  _189
REMARK   80  A    between atoms: _189  and  _190
REMARK   81  A    between atoms: _190  and  _191
REMARK   82  A    between atoms: _200  and  _202
REMARK   83  A    between atoms: _202  and  _203
REMARK   84  A    between atoms: _202  and  _205
REMARK   85  A    between atoms: _208  and  _210
REMARK   86  A    between atoms: _210  and  _211
REMARK   87  A    between atoms: _210  and  _213
REMARK   88  A    between atoms: _213  and  _214
REMARK   89  A    between atoms: _218  and  ZN_473
REMARK   90  A    between atoms: _219  and  _221
REMARK   91  A    between atoms: _221  and  _222
REMARK   92  A    between atoms: _221  and  _224
REMARK   93  A    between atoms: _224  and  _225
REMARK   94  A    between atoms: _225  and  _226
REMARK   95  A    between atoms: _229  and  _231
REMARK   96  A    between atoms: _231  and  _232
REMARK   97  A    between atoms: _231  and  _234
REMARK   98  A    between atoms: _234  and  _235
REMARK   99  A    between atoms: _240  and  _241
REMARK  100  A    between atoms: _243  and  _245
REMARK  101  A    between atoms: _245  and  _246
REMARK  102  A    between atoms: _245  and  _248
REMARK  103  A    between atoms: _248  and  _249
REMARK  104  A    between atoms: _253  and  ZN_473
REMARK  105  A    between atoms: _254  and  _256
REMARK  106  A    between atoms: _256  and  _257
REMARK  107  A    between atoms: _256  and  _259
REMARK  108  A    between atoms: _259  and  _260
REMARK  109  A    between atoms: _263  and  _265
REMARK  110  A    between atoms: _265  and  _266
REMARK  111  A    between atoms: _265  and  _268
REMARK  112  A    between atoms: _268  and  _269
REMARK  113  A    between atoms: _274  and  _276
REMARK  114  A    between atoms: _276  and  _277
REMARK  115  A    between atoms: _276  and  _279
REMARK  116  A    between atoms: _279  and  _280
REMARK  117  A    between atoms: _290  and  _292
REMARK  118  A    between atoms: _292  and  _293
REMARK  119  A    between atoms: _292  and  _295
REMARK  120  A    between atoms: _295  and  _296
REMARK  121  A    between atoms: _299  and  _301
REMARK  122  A    between atoms: _301  and  _302
REMARK  123  A    between atoms: _301  and  _304
REMARK  124  A    between atoms: _304  and  _305
REMARK  125  A    between atoms: _305  and  _306
REMARK  126  A    between atoms: _306  and  _307
REMARK  127  A    between atoms: _307  and  _308
REMARK  128  A    between atoms: _312  and  _314
REMARK  129  A    between atoms: _314  and  _315
REMARK  130  A    between atoms: _314  and  _317
REMARK  131  A    between atoms: _317  and  _318
REMARK  132  A    between atoms: _318  and  _319
REMARK  133  A    between atoms: _319  and  _320
REMARK  134  A    between atoms: _320  and  ZN_473
REMARK  135  A    between atoms: _322  and  _324
REMARK  136  A    between atoms: _324  and  _325
REMARK  137  A    between atoms: _327  and  _329
REMARK  138  A    between atoms: _329  and  _330
REMARK  139  A    between atoms: _329  and  _332
REMARK  140  A    between atoms: _332  and  _333
REMARK  141  A    between atoms: _336  and  _338
REMARK  142  A    between atoms: _338  and  _339
REMARK  143  A    between atoms: _338  and  _341
REMARK  144  A    between atoms: _344  and  _346
REMARK  145  A    between atoms: _346  and  _347
REMARK  146  A    between atoms: _346  and  _349
REMARK  147  A    between atoms: _349  and  _350
REMARK  148  A    between atoms: _350  and  _351
REMARK  149  A    between atoms: _354  and  _356
REMARK  150  A    between atoms: _356  and  _357
REMARK  151  A    between atoms: _356  and  _359
REMARK  152  A    between atoms: _359  and  _360
REMARK  153  A    between atoms: _360  and  _361
REMARK  154  A    between atoms: _363  and  _365
REMARK  155  A    between atoms: _365  and  _366
REMARK  156  A    between atoms: _365  and  _368
REMARK  157  A    between atoms: _368  and  _369
REMARK  158  A    between atoms: _369  and  _370
REMARK  159  A    between atoms: _373  and  _375
REMARK  160  A    between atoms: _375  and  _376
REMARK  161  A    between atoms: _375  and  _378
REMARK  162  A    between atoms: _378  and  _379
REMARK  163  A    between atoms: _384  and  _386
REMARK  164  A    between atoms: _386  and  _387
REMARK  165  A    between atoms: _386  and  _389
REMARK  166  A    between atoms: _389  and  _390
REMARK  167  A    between atoms: _396  and  _398
REMARK  168  A    between atoms: _398  and  _399
REMARK  169  A    between atoms: _398  and  _401
REMARK  170  A    between atoms: _401  and  _402
REMARK  171  A    between atoms: _407  and  _408
REMARK  172  A    between atoms: _410  and  _412
REMARK  173  A    between atoms: _412  and  _413
REMARK  174  A    between atoms: _412  and  _415
REMARK  175  A    between atoms: _415  and  _416
REMARK  176  A    between atoms: _421  and  _422
REMARK  177  A    between atoms: _424  and  _426
REMARK  178  A    between atoms: _426  and  _427
REMARK  179  A    between atoms: _426  and  _429
REMARK  180  A    between atoms: _430  and  _431
REMARK  181  A    between atoms: _431  and  _432
REMARK  182  A    between atoms: _441  and  _443
REMARK  183  A    between atoms: _443  and  _444
REMARK  184  A    between atoms: _443  and  _446
REMARK  185  A    between atoms: _446  and  _447
REMARK  186  A    between atoms: _447  and  _448
REMARK  187  A    between atoms: _450  and  _452
REMARK  188  A    between atoms: _452  and  _453
REMARK  189  A    between atoms: _452  and  _455
REMARK  190  A    between atoms: _455  and  _456
REMARK  191  A    between atoms: _456  and  _457
REMARK  192  A    between atoms: _462  and  _464
REMARK  193  A    between atoms: _464  and  _465
REMARK  194  A    between atoms: _464  and  _467
REMARK  195  A    between atoms: _467  and  _468
REMARK                            x       y       z     vdW  Elec       q    Type
REMARK                         _______ _______ _______ _____ _____    ______ ____
ROOT
ATOM      1  O   HOH     1       6.683  15.776   9.365  0.00  0.00    +0.000 OA
ENDROOT
TORSDOF 0
REMARK  Name = ../refined-set-2016/4k5p/4k5p_pocket.pdb
REMARK  195 active torsions:
REMARK  status: ('A' for Active; 'I' for Inactive)
REMARK    1  A    between atoms: _1  and  _3
REMARK    2  A    between atoms: _3  and  _4
REMARK    3  A    between atoms: _3  and  _6
REMARK    4  A    between atoms: _6  and  _7
REMARK    5  A    between atoms: _10  and  _12
REMARK    6  A    between atoms: _12  and  _13
REMARK    7  A    between atoms: _12  and  _15
REMARK    8  A    between atoms: _15  and  _16
REMARK    9  A    between atoms: _19  and  _21
REMARK   10  A    between atoms: _21  and  _22
REMARK   11  A    between atoms: _21  and  _24
REMARK   12  A    between atoms: _24  and  _25
REMARK   13  A    between atoms: _25  and  _26
REMARK   14  A    between atoms: _31  and  _33
REMARK   15  A    between atoms: _33  and  _34
REMARK   16  A    between atoms: _33  and  _36
REMARK   17  A    between atoms: _38  and  _40
REMARK   18  A    between atoms: _40  and  _41
REMARK   19  A    between atoms: _40  and  _43
REMARK   20  A    between atoms: _43  and  _44
REMARK   21  A    between atoms: _44  and  _45
REMARK   22  A    between atoms: _48  and  _50
REMARK   23  A    between atoms: _50  and  _51
REMARK   24  A    between atoms: _54  and  _56
REMARK   25  A    between atoms: _56  and  _57
REMARK   26  A    between atoms: _56  and  _59
REMARK   27  A    between atoms: _59  and  _60
REMARK   28  A    between atoms: _63  and  _65
REMARK   29  A    between atoms: _65  and  _66
REMARK   30  A    between atoms: _68  and  _70
REMARK   31  A    between atoms: _70  and  _71
REMARK   32  A    between atoms: _70  and  _73
REMARK   33  A    between atoms: _73  and  _74
REMARK   34  A    between atoms: _79  and  _80
REMARK   35  A    between atoms: _82  and  _84
REMARK   36  A    between atoms: _84  and  _85
REMARK   37  A    between atoms: _84  and  _87
REMARK   38  A    between atoms: _87  and  _88
REMARK   39  A    between atoms: _91  and  _93
REMARK   40  A    between atoms: _93  and  _94
REMARK   41  A    between atoms: _93  and  _96
REMARK   42  A    between atoms: _96  and  _97
REMARK   43  A    between atoms: _103  and  _105
REMARK   44  A    between atoms: _105  and  _106
REMARK   45  A    between atoms: _105  and  _108
REMARK   46  A    between atoms: _108  and  _109
REMARK   47  A    between atoms: _114  and  _116
REMARK   48  A    between atoms: _116  and  _117
REMARK   49  A    between atoms: _116  and  _119
REMARK   50  A    between atoms: _122  and  _124
REMARK   51  A    between atoms: _124  and  _125
REMARK   52  A    between atoms: _127  and  _129
REMARK   53  A    between atoms: _129  and  _130
REMARK   54  A    between atoms: _133  and  _135
REMARK   55  A    between atoms: _135  and  _136
REMARK   56  A    between atoms: _135  and  _138
REMARK   57  A    between atoms: _138  and  _139
REMARK   58  A    between atoms: _139  and  _140
REMARK   59  A    between atoms: _142  and  _144
REMARK   60  A    between atoms: _144  and  _145
REMARK   61  A    between atoms: _144  and  _147
REMARK   62  A    between atoms: _147  and  _148
REMARK   63  A    between atoms: _148  and  _149
REMARK   64  A    between atoms: _152  and  _154
REMARK   65  A    between atoms: _154  and  _155
REMARK   66  A    between atoms: _154  and  _157
REMARK   67  A    between atoms: _157  and  _158
REMARK   68  A    between atoms: _163  and  _165
REMARK   69  A    between atoms: _165  and  _166
REMARK   70  A    between atoms: _165  and  _168
REMARK   71  A    between atoms: _168  and  _169
REMARK   72  A    between atoms: _172  and  _174
REMARK   73  A    between atoms: _174  and  _175
REMARK   74  A    between atoms: _174  and  _177
REMARK   75  A    between atoms: _177  and  _178
REMARK   76  A    between atoms: _183  and  _185
REMARK   77  A    between atoms: _185  and  _186
REMARK   78  A    between atoms: _185  and  _188
REMARK   79  A    between atoms: _188  and  _189
REMARK   80  A    between atoms: _189  and  _190
REMARK   81  A    between atoms: _190  and  _191
REMARK   82  A    between atoms: _200  and  _202
REMARK   83  A    between atoms: _202  and  _203
REMARK   84  A    between atoms: _202  and  _205
REMARK   85  A    between atoms: _208  and  _210
REMARK   86  A    between atoms: _210  and  _211
REMARK   87  A    between atoms: _210  and  _213
REMARK   88  A    between atoms: _213  and  _214
REMARK   89  A    between atoms: _218  and  ZN_473
REMARK   90  A    between atoms: _219  and  _221
REMARK   91  A    between atoms: _221  and  _222
REMARK   92  A    between atoms: _221  and  _224
REMARK   93  A    between atoms: _224  and  _225
REMARK   94  A    between atoms: _225  and  _226
REMARK   95  A    between atoms: _229  and  _231
REMARK   96  A    between atoms: _231  and  _232
REMARK   97  A    between atoms: _231  and  _234
REMARK   98  A    between atoms: _234  and  _235
REMARK   99  A    between atoms: _240  and  _241
REMARK  100  A    between atoms: _243  and  _245
REMARK  101  A    between atoms: _245  and  _246
REMARK  102  A    between atoms: _245  and  _248
REMARK  103  A    between atoms: _248  and  _249
REMARK  104  A    between atoms: _253  and  ZN_473
REMARK  105  A    between atoms: _254  and  _256
REMARK  106  A    between atoms: _256  and  _257
REMARK  107  A    between atoms: _256  and  _259
REMARK  108  A    between atoms: _259  and  _260
REMARK  109  A    between atoms: _263  and  _265
REMARK  110  A    between atoms: _265  and  _266
REMARK  111  A    between atoms: _265  and  _268
REMARK  112  A    between atoms: _268  and  _269
REMARK  113  A    between atoms: _274  and  _276
REMARK  114  A    between atoms: _276  and  _277
REMARK  115  A    between atoms: _276  and  _279
REMARK  116  A    between atoms: _279  and  _280
REMARK  117  A    between atoms: _290  and  _292
REMARK  118  A    between atoms: _292  and  _293
REMARK  119  A    between atoms: _292  and  _295
REMARK  120  A    between atoms: _295  and  _296
REMARK  121  A    between atoms: _299  and  _301
REMARK  122  A    between atoms: _301  and  _302
REMARK  123  A    between atoms: _301  and  _304
REMARK  124  A    between atoms: _304  and  _305
REMARK  125  A    between atoms: _305  and  _306
REMARK  126  A    between atoms: _306  and  _307
REMARK  127  A    between atoms: _307  and  _308
REMARK  128  A    between atoms: _312  and  _314
REMARK  129  A    between atoms: _314  and  _315
REMARK  130  A    between atoms: _314  and  _317
REMARK  131  A    between atoms: _317  and  _318
REMARK  132  A    between atoms: _318  and  _319
REMARK  133  A    between atoms: _319  and  _320
REMARK  134  A    between atoms: _320  and  ZN_473
REMARK  135  A    between atoms: _322  and  _324
REMARK  136  A    between atoms: _324  and  _325
REMARK  137  A    between atoms: _327  and  _329
REMARK  138  A    between atoms: _329  and  _330
REMARK  139  A    between atoms: _329  and  _332
REMARK  140  A    between atoms: _332  and  _333
REMARK  141  A    between atoms: _336  and  _338
REMARK  142  A    between atoms: _338  and  _339
REMARK  143  A    between atoms: _338  and  _341
REMARK  144  A    between atoms: _344  and  _346
REMARK  145  A    between atoms: _346  and  _347
REMARK  146  A    between atoms: _346  and  _349
REMARK  147  A    between atoms: _349  and  _350
REMARK  148  A    between atoms: _350  and  _351
REMARK  149  A    between atoms: _354  and  _356
REMARK  150  A    between atoms: _356  and  _357
REMARK  151  A    between atoms: _356  and  _359
REMARK  152  A    between atoms: _359  and  _360
REMARK  153  A    between atoms: _360  and  _361
REMARK  154  A    between atoms: _363  and  _365
REMARK  155  A    between atoms: _365  and  _366
REMARK  156  A    between atoms: _365  and  _368
REMARK  157  A    between atoms: _368  and  _369
REMARK  158  A    between atoms: _369  and  _370
REMARK  159  A    between atoms: _373  and  _375
REMARK  160  A    between atoms: _375  and  _376
REMARK  161  A    between atoms: _375  and  _378
REMARK  162  A    between atoms: _378  and  _379
REMARK  163  A    between atoms: _384  and  _386
REMARK  164  A    between atoms: _386  and  _387
REMARK  165  A    between atoms: _386  and  _389
REMARK  166  A    between atoms: _389  and  _390
REMARK  167  A    between atoms: _396  and  _398
REMARK  168  A    between atoms: _398  and  _399
REMARK  169  A    between atoms: _398  and  _401
REMARK  170  A    between atoms: _401  and  _402
REMARK  171  A    between atoms: _407  and  _408
REMARK  172  A    between atoms: _410  and  _412
REMARK  173  A    between atoms: _412  and  _413
REMARK  174  A    between atoms: _412  and  _415
REMARK  175  A    between atoms: _415  and  _416
REMARK  176  A    between atoms: _421  and  _422
REMARK  177  A    between atoms: _424  and  _426
REMARK  178  A    between atoms: _426  and  _427
REMARK  179  A    between atoms: _426  and  _429
REMARK  180  A    between atoms: _430  and  _431
REMARK  181  A    between atoms: _431  and  _432
REMARK  182  A    between atoms: _441  and  _443
REMARK  183  A    between atoms: _443  and  _444
REMARK  184  A    between atoms: _443  and  _446
REMARK  185  A    between atoms: _446  and  _447
REMARK  186  A    between atoms: _447  and  _448
REMARK  187  A    between atoms: _450  and  _452
REMARK  188  A    between atoms: _452  and  _453
REMARK  189  A    between atoms: _452  and  _455
REMARK  190  A    between atoms: _455  and  _456
REMARK  191  A    between atoms: _456  and  _457
REMARK  192  A    between atoms: _462  and  _464
REMARK  193  A    between atoms: _464  and  _465
REMARK  194  A    between atoms: _464  and  _467
REMARK  195  A    between atoms: _467  and  _468
REMARK                            x       y       z     vdW  Elec       q    Type
REMARK                         _______ _______ _______ _____ _____    ______ ____
ROOT
ATOM      1  O   HOH     1      16.744  10.891   9.365  0.00  0.00    +0.000 OA
ENDROOT
TORSDOF 0
REMARK  Name = ../refined-set-2016/4k5p/4k5p_pocket.pdb
REMARK  195 active torsions:
REMARK  status: ('A' for Active; 'I' for Inactive)
REMARK    1  A    between atoms: _1  and  _3
REMARK    2  A    between atoms: _3  and  _4
REMARK    3  A    between atoms: _3  and  _6
REMARK    4  A    between atoms: _6  and  _7
REMARK    5  A    between atoms: _10  and  _12
REMARK    6  A    between atoms: _12  and  _13
REMARK    7  A    between atoms: _12  and  _15
REMARK    8  A    between atoms: _15  and  _16
REMARK    9  A    between atoms: _19  and  _21
REMARK   10  A    between atoms: _21  and  _22
REMARK   11  A    between atoms: _21  and  _24
REMARK   12  A    between atoms: _24  and  _25
REMARK   13  A    between atoms: _25  and  _26
REMARK   14  A    between atoms: _31  and  _33
REMARK   15  A    between atoms: _33  and  _34
REMARK   16  A    between atoms: _33  and  _36
REMARK   17  A    between atoms: _38  and  _40
REMARK   18  A    between atoms: _40  and  _41
REMARK   19  A    between atoms: _40  and  _43
REMARK   20  A    between atoms: _43  and  _44
REMARK   21  A    between atoms: _44  and  _45
REMARK   22  A    between atoms: _48  and  _50
REMARK   23  A    between atoms: _50  and  _51
REMARK   24  A    between atoms: _54  and  _56
REMARK   25  A    between atoms: _56  and  _57
REMARK   26  A    between atoms: _56  and  _59
REMARK   27  A    between atoms: _59  and  _60
REMARK   28  A    between atoms: _63  and  _65
REMARK   29  A    between atoms: _65  and  _66
REMARK   30  A    between atoms: _68  and  _70
REMARK   31  A    between atoms: _70  and  _71
REMARK   32  A    between atoms: _70  and  _73
REMARK   33  A    between atoms: _73  and  _74
REMARK   34  A    between atoms: _79  and  _80
REMARK   35  A    between atoms: _82  and  _84
REMARK   36  A    between atoms: _84  and  _85
REMARK   37  A    between atoms: _84  and  _87
REMARK   38  A    between atoms: _87  and  _88
REMARK   39  A    between atoms: _91  and  _93
REMARK   40  A    between atoms: _93  and  _94
REMARK   41  A    between atoms: _93  and  _96
REMARK   42  A    between atoms: _96  and  _97
REMARK   43  A    between atoms: _103  and  _105
REMARK   44  A    between atoms: _105  and  _106
REMARK   45  A    between atoms: _105  and  _108
REMARK   46  A    between atoms: _108  and  _109
REMARK   47  A    between atoms: _114  and  _116
REMARK   48  A    between atoms: _116  and  _117
REMARK   49  A    between atoms: _116  and  _119
REMARK   50  A    between atoms: _122  and  _124
REMARK   51  A    between atoms: _124  and  _125
REMARK   52  A    between atoms: _127  and  _129
REMARK   53  A    between atoms: _129  and  _130
REMARK   54  A    between atoms: _133  and  _135
REMARK   55  A    between atoms: _135  and  _136
REMARK   56  A    between atoms: _135  and  _138
REMARK   57  A    between atoms: _138  and  _139
REMARK   58  A    between atoms: _139  and  _140
REMARK   59  A    between atoms: _142  and  _144
REMARK   60  A    between atoms: _144  and  _145
REMARK   61  A    between atoms: _144  and  _147
REMARK   62  A    between atoms: _147  and  _148
REMARK   63  A    between atoms: _148  and  _149
REMARK   64  A    between atoms: _152  and  _154
REMARK   65  A    between atoms: _154  and  _155
REMARK   66  A    between atoms: _154  and  _157
REMARK   67  A    between atoms: _157  and  _158
REMARK   68  A    between atoms: _163  and  _165
REMARK   69  A    between atoms: _165  and  _166
REMARK   70  A    between atoms: _165  and  _168
REMARK   71  A    between atoms: _168  and  _169
REMARK   72  A    between atoms: _172  and  _174
REMARK   73  A    between atoms: _174  and  _175
REMARK   74  A    between atoms: _174  and  _177
REMARK   75  A    between atoms: _177  and  _178
REMARK   76  A    between atoms: _183  and  _185
REMARK   77  A    between atoms: _185  and  _186
REMARK   78  A    between atoms: _185  and  _188
REMARK   79  A    between atoms: _188  and  _189
REMARK   80  A    between atoms: _189  and  _190
REMARK   81  A    between atoms: _190  and  _191
REMARK   82  A    between atoms: _200  and  _202
REMARK   83  A    between atoms: _202  and  _203
REMARK   84  A    between atoms: _202  and  _205
REMARK   85  A    between atoms: _208  and  _210
REMARK   86  A    between atoms: _210  and  _211
REMARK   87  A    between atoms: _210  and  _213
REMARK   88  A    between atoms: _213  and  _214
REMARK   89  A    between atoms: _218  and  ZN_473
REMARK   90  A    between atoms: _219  and  _221
REMARK   91  A    between atoms: _221  and  _222
REMARK   92  A    between atoms: _221  and  _224
REMARK   93  A    between atoms: _224  and  _225
REMARK   94  A    between atoms: _225  and  _226
REMARK   95  A    between atoms: _229  and  _231
REMARK   96  A    between atoms: _231  and  _232
REMARK   97  A    between atoms: _231  and  _234
REMARK   98  A    between atoms: _234  and  _235
REMARK   99  A    between atoms: _240  and  _241
REMARK  100  A    between atoms: _243  and  _245
REMARK  101  A    between atoms: _245  and  _246
REMARK  102  A    between atoms: _245  and  _248
REMARK  103  A    between atoms: _248  and  _249
REMARK  104  A    between atoms: _253  and  ZN_473
REMARK  105  A    between atoms: _254  and  _256
REMARK  106  A    between atoms: _256  and  _257
REMARK  107  A    between atoms: _256  and  _259
REMARK  108  A    between atoms: _259  and  _260
REMARK  109  A    between atoms: _263  and  _265
REMARK  110  A    between atoms: _265  and  _266
REMARK  111  A    between atoms: _265  and  _268
REMARK  112  A    between atoms: _268  and  _269
REMARK  113  A    between atoms: _274  and  _276
REMARK  114  A    between atoms: _276  and  _277
REMARK  115  A    between atoms: _276  and  _279
REMARK  116  A    between atoms: _279  and  _280
REMARK  117  A    between atoms: _290  and  _292
REMARK  118  A    between atoms: _292  and  _293
REMARK  119  A    between atoms: _292  and  _295
REMARK  120  A    between atoms: _295  and  _296
REMARK  121  A    between atoms: _299  and  _301
REMARK  122  A    between atoms: _301  and  _302
REMARK  123  A    between atoms: _301  and  _304
REMARK  124  A    between atoms: _304  and  _305
REMARK  125  A    between atoms: _305  and  _306
REMARK  126  A    between atoms: _306  and  _307
REMARK  127  A    between atoms: _307  and  _308
REMARK  128  A    between atoms: _312  and  _314
REMARK  129  A    between atoms: _314  and  _315
REMARK  130  A    between atoms: _314  and  _317
REMARK  131  A    between atoms: _317  and  _318
REMARK  132  A    between atoms: _318  and  _319
REMARK  133  A    between atoms: _319  and  _320
REMARK  134  A    between atoms: _320  and  ZN_473
REMARK  135  A    between atoms: _322  and  _324
REMARK  136  A    between atoms: _324  and  _325
REMARK  137  A    between atoms: _327  and  _329
REMARK  138  A    between atoms: _329  and  _330
REMARK  139  A    between atoms: _329  and  _332
REMARK  140  A    between atoms: _332  and  _333
REMARK  141  A    between atoms: _336  and  _338
REMARK  142  A    between atoms: _338  and  _339
REMARK  143  A    between atoms: _338  and  _341
REMARK  144  A    between atoms: _344  and  _346
REMARK  145  A    between atoms: _346  and  _347
REMARK  146  A    between atoms: _346  and  _349
REMARK  147  A    between atoms: _349  and  _350
REMARK  148  A    between atoms: _350  and  _351
REMARK  149  A    between atoms: _354  and  _356
REMARK  150  A    between atoms: _356  and  _357
REMARK  151  A    between atoms: _356  and  _359
REMARK  152  A    between atoms: _359  and  _360
REMARK  153  A    between atoms: _360  and  _361
REMARK  154  A    between atoms: _363  and  _365
REMARK  155  A    between atoms: _365  and  _366
REMARK  156  A    between atoms: _365  and  _368
REMARK  157  A    between atoms: _368  and  _369
REMARK  158  A    between atoms: _369  and  _370
REMARK  159  A    between atoms: _373  and  _375
REMARK  160  A    between atoms: _375  and  _376
REMARK  161  A    between atoms: _375  and  _378
REMARK  162  A    between atoms: _378  and  _379
REMARK  163  A    between atoms: _384  and  _386
REMARK  164  A    between atoms: _386  and  _387
REMARK  165  A    between atoms: _386  and  _389
REMARK  166  A    between atoms: _389  and  _390
REMARK  167  A    between atoms: _396  and  _398
REMARK  168  A    between atoms: _398  and  _399
REMARK  169  A    between atoms: _398  and  _401
REMARK  170  A    between atoms: _401  and  _402
REMARK  171  A    between atoms: _407  and  _408
REMARK  172  A    between atoms: _410  and  _412
REMARK  173  A    between atoms: _412  and  _413
REMARK  174  A    between atoms: _412  and  _415
REMARK  175  A    between atoms: _415  and  _416
REMARK  176  A    between atoms: _421  and  _422
REMARK  177  A    between atoms: _424  and  _426
REMARK  178  A    between atoms: _426  and  _427
REMARK  179  A    between atoms: _426  and  _429
REMARK  180  A    between atoms: _430  and  _431
REMARK  181  A    between atoms: _431  and  _432
REMARK  182  A    between atoms: _441  and  _443
REMARK  183  A    between atoms: _443  and  _444
REMARK  184  A    between atoms: _443  and  _446
REMARK  185  A    between atoms: _446  and  _447
REMARK  186  A    between atoms: _447  and  _448
REMARK  187  A    between atoms: _450  and  _452
REMARK  188  A    between atoms: _452  and  _453
REMARK  189  A    between atoms: _452  and  _455
REMARK  190  A    between atoms: _455  and  _456
REMARK  191  A    between atoms: _456  and  _457
REMARK  192  A    between atoms: _462  and  _464
REMARK  193  A    between atoms: _464  and  _465
REMARK  194  A    between atoms: _464  and  _467
REMARK  195  A    between atoms: _467  and  _468
REMARK                            x       y       z     vdW  Elec       q    Type
REMARK                         _______ _______ _______ _____ _____    ______ ____
ROOT
ATOM      1  O   HOH     1      15.116   4.038   8.222  0.00  0.00    +0.000 OA
ENDROOT
TORSDOF 0
REMARK  Name = ../refined-set-2016/4k5p/4k5p_pocket.pdb
REMARK  195 active torsions:
REMARK  status: ('A' for Active; 'I' for Inactive)
REMARK    1  A    between atoms: _1  and  _3
REMARK    2  A    between atoms: _3  and  _4
REMARK    3  A    between atoms: _3  and  _6
REMARK    4  A    between atoms: _6  and  _7
REMARK    5  A    between atoms: _10  and  _12
REMARK    6  A    between atoms: _12  and  _13
REMARK    7  A    between atoms: _12  and  _15
REMARK    8  A    between atoms: _15  and  _16
REMARK    9  A    between atoms: _19  and  _21
REMARK   10  A    between atoms: _21  and  _22
REMARK   11  A    between atoms: _21  and  _24
REMARK   12  A    between atoms: _24  and  _25
REMARK   13  A    between atoms: _25  and  _26
REMARK   14  A    between atoms: _31  and  _33
REMARK   15  A    between atoms: _33  and  _34
REMARK   16  A    between atoms: _33  and  _36
REMARK   17  A    between atoms: _38  and  _40
REMARK   18  A    between atoms: _40  and  _41
REMARK   19  A    between atoms: _40  and  _43
REMARK   20  A    between atoms: _43  and  _44
REMARK   21  A    between atoms: _44  and  _45
REMARK   22  A    between atoms: _48  and  _50
REMARK   23  A    between atoms: _50  and  _51
REMARK   24  A    between atoms: _54  and  _56
REMARK   25  A    between atoms: _56  and  _57
REMARK   26  A    between atoms: _56  and  _59
REMARK   27  A    between atoms: _59  and  _60
REMARK   28  A    between atoms: _63  and  _65
REMARK   29  A    between atoms: _65  and  _66
REMARK   30  A    between atoms: _68  and  _70
REMARK   31  A    between atoms: _70  and  _71
REMARK   32  A    between atoms: _70  and  _73
REMARK   33  A    between atoms: _73  and  _74
REMARK   34  A    between atoms: _79  and  _80
REMARK   35  A    between atoms: _82  and  _84
REMARK   36  A    between atoms: _84  and  _85
REMARK   37  A    between atoms: _84  and  _87
REMARK   38  A    between atoms: _87  and  _88
REMARK   39  A    between atoms: _91  and  _93
REMARK   40  A    between atoms: _93  and  _94
REMARK   41  A    between atoms: _93  and  _96
REMARK   42  A    between atoms: _96  and  _97
REMARK   43  A    between atoms: _103  and  _105
REMARK   44  A    between atoms: _105  and  _106
REMARK   45  A    between atoms: _105  and  _108
REMARK   46  A    between atoms: _108  and  _109
REMARK   47  A    between atoms: _114  and  _116
REMARK   48  A    between atoms: _116  and  _117
REMARK   49  A    between atoms: _116  and  _119
REMARK   50  A    between atoms: _122  and  _124
REMARK   51  A    between atoms: _124  and  _125
REMARK   52  A    between atoms: _127  and  _129
REMARK   53  A    between atoms: _129  and  _130
REMARK   54  A    between atoms: _133  and  _135
REMARK   55  A    between atoms: _135  and  _136
REMARK   56  A    between atoms: _135  and  _138
REMARK   57  A    between atoms: _138  and  _139
REMARK   58  A    between atoms: _139  and  _140
REMARK   59  A    between atoms: _142  and  _144
REMARK   60  A    between atoms: _144  and  _145
REMARK   61  A    between atoms: _144  and  _147
REMARK   62  A    between atoms: _147  and  _148
REMARK   63  A    between atoms: _148  and  _149
REMARK   64  A    between atoms: _152  and  _154
REMARK   65  A    between atoms: _154  and  _155
REMARK   66  A    between atoms: _154  and  _157
REMARK   67  A    between atoms: _157  and  _158
REMARK   68  A    between atoms: _163  and  _165
REMARK   69  A    between atoms: _165  and  _166
REMARK   70  A    between atoms: _165  and  _168
REMARK   71  A    between atoms: _168  and  _169
REMARK   72  A    between atoms: _172  and  _174
REMARK   73  A    between atoms: _174  and  _175
REMARK   74  A    between atoms: _174  and  _177
REMARK   75  A    between atoms: _177  and  _178
REMARK   76  A    between atoms: _183  and  _185
REMARK   77  A    between atoms: _185  and  _186
REMARK   78  A    between atoms: _185  and  _188
REMARK   79  A    between atoms: _188  and  _189
REMARK   80  A    between atoms: _189  and  _190
REMARK   81  A    between atoms: _190  and  _191
REMARK   82  A    between atoms: _200  and  _202
REMARK   83  A    between atoms: _202  and  _203
REMARK   84  A    between atoms: _202  and  _205
REMARK   85  A    between atoms: _208  and  _210
REMARK   86  A    between atoms: _210  and  _211
REMARK   87  A    between atoms: _210  and  _213
REMARK   88  A    between atoms: _213  and  _214
REMARK   89  A    between atoms: _218  and  ZN_473
REMARK   90  A    between atoms: _219  and  _221
REMARK   91  A    between atoms: _221  and  _222
REMARK   92  A    between atoms: _221  and  _224
REMARK   93  A    between atoms: _224  and  _225
REMARK   94  A    between atoms: _225  and  _226
REMARK   95  A    between atoms: _229  and  _231
REMARK   96  A    between atoms: _231  and  _232
REMARK   97  A    between atoms: _231  and  _234
REMARK   98  A    between atoms: _234  and  _235
REMARK   99  A    between atoms: _240  and  _241
REMARK  100  A    between atoms: _243  and  _245
REMARK  101  A    between atoms: _245  and  _246
REMARK  102  A    between atoms: _245  and  _248
REMARK  103  A    between atoms: _248  and  _249
REMARK  104  A    between atoms: _253  and  ZN_473
REMARK  105  A    between atoms: _254  and  _256
REMARK  106  A    between atoms: _256  and  _257
REMARK  107  A    between atoms: _256  and  _259
REMARK  108  A    between atoms: _259  and  _260
REMARK  109  A    between atoms: _263  and  _265
REMARK  110  A    between atoms: _265  and  _266
REMARK  111  A    between atoms: _265  and  _268
REMARK  112  A    between atoms: _268  and  _269
REMARK  113  A    between atoms: _274  and  _276
REMARK  114  A    between atoms: _276  and  _277
REMARK  115  A    between atoms: _276  and  _279
REMARK  116  A    between atoms: _279  and  _280
REMARK  117  A    between atoms: _290  and  _292
REMARK  118  A    between atoms: _292  and  _293
REMARK  119  A    between atoms: _292  and  _295
REMARK  120  A    between atoms: _295  and  _296
REMARK  121  A    between atoms: _299  and  _301
REMARK  122  A    between atoms: _301  and  _302
REMARK  123  A    between atoms: _301  and  _304
REMARK  124  A    between atoms: _304  and  _305
REMARK  125  A    between atoms: _305  and  _306
REMARK  126  A    between atoms: _306  and  _307
REMARK  127  A    between atoms: _307  and  _308
REMARK  128  A    between atoms: _312  and  _314
REMARK  129  A    between atoms: _314  and  _315
REMARK  130  A    between atoms: _314  and  _317
REMARK  131  A    between atoms: _317  and  _318
REMARK  132  A    between atoms: _318  and  _319
REMARK  133  A    between atoms: _319  and  _320
REMARK  134  A    between atoms: _320  and  ZN_473
REMARK  135  A    between atoms: _322  and  _324
REMARK  136  A    between atoms: _324  and  _325
REMARK  137  A    between atoms: _327  and  _329
REMARK  138  A    between atoms: _329  and  _330
REMARK  139  A    between atoms: _329  and  _332
REMARK  140  A    between atoms: _332  and  _333
REMARK  141  A    between atoms: _336  and  _338
REMARK  142  A    between atoms: _338  and  _339
REMARK  143  A    between atoms: _338  and  _341
REMARK  144  A    between atoms: _344  and  _346
REMARK  145  A    between atoms: _346  and  _347
REMARK  146  A    between atoms: _346  and  _349
REMARK  147  A    between atoms: _349  and  _350
REMARK  148  A    between atoms: _350  and  _351
REMARK  149  A    between atoms: _354  and  _356
REMARK  150  A    between atoms: _356  and  _357
REMARK  151  A    between atoms: _356  and  _359
REMARK  152  A    between atoms: _359  and  _360
REMARK  153  A    between atoms: _360  and  _361
REMARK  154  A    between atoms: _363  and  _365
REMARK  155  A    between atoms: _365  and  _366
REMARK  156  A    between atoms: _365  and  _368
REMARK  157  A    between atoms: _368  and  _369
REMARK  158  A    between atoms: _369  and  _370
REMARK  159  A    between atoms: _373  and  _375
REMARK  160  A    between atoms: _375  and  _376
REMARK  161  A    between atoms: _375  and  _378
REMARK  162  A    between atoms: _378  and  _379
REMARK  163  A    between atoms: _384  and  _386
REMARK  164  A    between atoms: _386  and  _387
REMARK  165  A    between atoms: _386  and  _389
REMARK  166  A    between atoms: _389  and  _390
REMARK  167  A    between atoms: _396  and  _398
REMARK  168  A    between atoms: _398  and  _399
REMARK  169  A    between atoms: _398  and  _401
REMARK  170  A    between atoms: _401  and  _402
REMARK  171  A    between atoms: _407  and  _408
REMARK  172  A    between atoms: _410  and  _412
REMARK  173  A    between atoms: _412  and  _413
REMARK  174  A    between atoms: _412  and  _415
REMARK  175  A    between atoms: _415  and  _416
REMARK  176  A    between atoms: _421  and  _422
REMARK  177  A    between atoms: _424  and  _426
REMARK  178  A    between atoms: _426  and  _427
REMARK  179  A    between atoms: _426  and  _429
REMARK  180  A    between atoms: _430  and  _431
REMARK  181  A    between atoms: _431  and  _432
REMARK  182  A    between atoms: _441  and  _443
REMARK  183  A    between atoms: _443  and  _444
REMARK  184  A    between atoms: _443  and  _446
REMARK  185  A    between atoms: _446  and  _447
REMARK  186  A    between atoms: _447  and  _448
REMARK  187  A    between atoms: _450  and  _452
REMARK  188  A    between atoms: _452  and  _453
REMARK  189  A    between atoms: _452  and  _455
REMARK  190  A    between atoms: _455  and  _456
REMARK  191  A    between atoms: _456  and  _457
REMARK  192  A    between atoms: _462  and  _464
REMARK  193  A    between atoms: _464  and  _465
REMARK  194  A    between atoms: _464  and  _467
REMARK  195  A    between atoms: _467  and  _468
REMARK                            x       y       z     vdW  Elec       q    Type
REMARK                         _______ _______ _______ _____ _____    ______ ____
ROOT
ATOM      1  O   HOH     1      16.556   5.734  17.884  0.00  0.00    +0.000 OA
ENDROOT
TORSDOF 0
REMARK  Name = ../refined-set-2016/4k5p/4k5p_pocket.pdb
REMARK  195 active torsions:
REMARK  status: ('A' for Active; 'I' for Inactive)
REMARK    1  A    between atoms: _1  and  _3
REMARK    2  A    between atoms: _3  and  _4
REMARK    3  A    between atoms: _3  and  _6
REMARK    4  A    between atoms: _6  and  _7
REMARK    5  A    between atoms: _10  and  _12
REMARK    6  A    between atoms: _12  and  _13
REMARK    7  A    between atoms: _12  and  _15
REMARK    8  A    between atoms: _15  and  _16
REMARK    9  A    between atoms: _19  and  _21
REMARK   10  A    between atoms: _21  and  _22
REMARK   11  A    between atoms: _21  and  _24
REMARK   12  A    between atoms: _24  and  _25
REMARK   13  A    between atoms: _25  and  _26
REMARK   14  A    between atoms: _31  and  _33
REMARK   15  A    between atoms: _33  and  _34
REMARK   16  A    between atoms: _33  and  _36
REMARK   17  A    between atoms: _38  and  _40
REMARK   18  A    between atoms: _40  and  _41
REMARK   19  A    between atoms: _40  and  _43
REMARK   20  A    between atoms: _43  and  _44
REMARK   21  A    between atoms: _44  and  _45
REMARK   22  A    between atoms: _48  and  _50
REMARK   23  A    between atoms: _50  and  _51
REMARK   24  A    between atoms: _54  and  _56
REMARK   25  A    between atoms: _56  and  _57
REMARK   26  A    between atoms: _56  and  _59
REMARK   27  A    between atoms: _59  and  _60
REMARK   28  A    between atoms: _63  and  _65
REMARK   29  A    between atoms: _65  and  _66
REMARK   30  A    between atoms: _68  and  _70
REMARK   31  A    between atoms: _70  and  _71
REMARK   32  A    between atoms: _70  and  _73
REMARK   33  A    between atoms: _73  and  _74
REMARK   34  A    between atoms: _79  and  _80
REMARK   35  A    between atoms: _82  and  _84
REMARK   36  A    between atoms: _84  and  _85
REMARK   37  A    between atoms: _84  and  _87
REMARK   38  A    between atoms: _87  and  _88
REMARK   39  A    between atoms: _91  and  _93
REMARK   40  A    between atoms: _93  and  _94
REMARK   41  A    between atoms: _93  and  _96
REMARK   42  A    between atoms: _96  and  _97
REMARK   43  A    between atoms: _103  and  _105
REMARK   44  A    between atoms: _105  and  _106
REMARK   45  A    between atoms: _105  and  _108
REMARK   46  A    between atoms: _108  and  _109
REMARK   47  A    between atoms: _114  and  _116
REMARK   48  A    between atoms: _116  and  _117
REMARK   49  A    between atoms: _116  and  _119
REMARK   50  A    between atoms: _122  and  _124
REMARK   51  A    between atoms: _124  and  _125
REMARK   52  A    between atoms: _127  and  _129
REMARK   53  A    between atoms: _129  and  _130
REMARK   54  A    between atoms: _133  and  _135
REMARK   55  A    between atoms: _135  and  _136
REMARK   56  A    between atoms: _135  and  _138
REMARK   57  A    between atoms: _138  and  _139
REMARK   58  A    between atoms: _139  and  _140
REMARK   59  A    between atoms: _142  and  _144
REMARK   60  A    between atoms: _144  and  _145
REMARK   61  A    between atoms: _144  and  _147
REMARK   62  A    between atoms: _147  and  _148
REMARK   63  A    between atoms: _148  and  _149
REMARK   64  A    between atoms: _152  and  _154
REMARK   65  A    between atoms: _154  and  _155
REMARK   66  A    between atoms: _154  and  _157
REMARK   67  A    between atoms: _157  and  _158
REMARK   68  A    between atoms: _163  and  _165
REMARK   69  A    between atoms: _165  and  _166
REMARK   70  A    between atoms: _165  and  _168
REMARK   71  A    between atoms: _168  and  _169
REMARK   72  A    between atoms: _172  and  _174
REMARK   73  A    between atoms: _174  and  _175
REMARK   74  A    between atoms: _174  and  _177
REMARK   75  A    between atoms: _177  and  _178
REMARK   76  A    between atoms: _183  and  _185
REMARK   77  A    between atoms: _185  and  _186
REMARK   78  A    between atoms: _185  and  _188
REMARK   79  A    between atoms: _188  and  _189
REMARK   80  A    between atoms: _189  and  _190
REMARK   81  A    between atoms: _190  and  _191
REMARK   82  A    between atoms: _200  and  _202
REMARK   83  A    between atoms: _202  and  _203
REMARK   84  A    between atoms: _202  and  _205
REMARK   85  A    between atoms: _208  and  _210
REMARK   86  A    between atoms: _210  and  _211
REMARK   87  A    between atoms: _210  and  _213
REMARK   88  A    between atoms: _213  and  _214
REMARK   89  A    between atoms: _218  and  ZN_473
REMARK   90  A    between atoms: _219  and  _221
REMARK   91  A    between atoms: _221  and  _222
REMARK   92  A    between atoms: _221  and  _224
REMARK   93  A    between atoms: _224  and  _225
REMARK   94  A    between atoms: _225  and  _226
REMARK   95  A    between atoms: _229  and  _231
REMARK   96  A    between atoms: _231  and  _232
REMARK   97  A    between atoms: _231  and  _234
REMARK   98  A    between atoms: _234  and  _235
REMARK   99  A    between atoms: _240  and  _241
REMARK  100  A    between atoms: _243  and  _245
REMARK  101  A    between atoms: _245  and  _246
REMARK  102  A    between atoms: _245  and  _248
REMARK  103  A    between atoms: _248  and  _249
REMARK  104  A    between atoms: _253  and  ZN_473
REMARK  105  A    between atoms: _254  and  _256
REMARK  106  A    between atoms: _256  and  _257
REMARK  107  A    between atoms: _256  and  _259
REMARK  108  A    between atoms: _259  and  _260
REMARK  109  A    between atoms: _263  and  _265
REMARK  110  A    between atoms: _265  and  _266
REMARK  111  A    between atoms: _265  and  _268
REMARK  112  A    between atoms: _268  and  _269
REMARK  113  A    between atoms: _274  and  _276
REMARK  114  A    between atoms: _276  and  _277
REMARK  115  A    between atoms: _276  and  _279
REMARK  116  A    between atoms: _279  and  _280
REMARK  117  A    between atoms: _290  and  _292
REMARK  118  A    between atoms: _292  and  _293
REMARK  119  A    between atoms: _292  and  _295
REMARK  120  A    between atoms: _295  and  _296
REMARK  121  A    between atoms: _299  and  _301
REMARK  122  A    between atoms: _301  and  _302
REMARK  123  A    between atoms: _301  and  _304
REMARK  124  A    between atoms: _304  and  _305
REMARK  125  A    between atoms: _305  and  _306
REMARK  126  A    between atoms: _306  and  _307
REMARK  127  A    between atoms: _307  and  _308
REMARK  128  A    between atoms: _312  and  _314
REMARK  129  A    between atoms: _314  and  _315
REMARK  130  A    between atoms: _314  and  _317
REMARK  131  A    between atoms: _317  and  _318
REMARK  132  A    between atoms: _318  and  _319
REMARK  133  A    between atoms: _319  and  _320
REMARK  134  A    between atoms: _320  and  ZN_473
REMARK  135  A    between atoms: _322  and  _324
REMARK  136  A    between atoms: _324  and  _325
REMARK  137  A    between atoms: _327  and  _329
REMARK  138  A    between atoms: _329  and  _330
REMARK  139  A    between atoms: _329  and  _332
REMARK  140  A    between atoms: _332  and  _333
REMARK  141  A    between atoms: _336  and  _338
REMARK  142  A    between atoms: _338  and  _339
REMARK  143  A    between atoms: _338  and  _341
REMARK  144  A    between atoms: _344  and  _346
REMARK  145  A    between atoms: _346  and  _347
REMARK  146  A    between atoms: _346  and  _349
REMARK  147  A    between atoms: _349  and  _350
REMARK  148  A    between atoms: _350  and  _351
REMARK  149  A    between atoms: _354  and  _356
REMARK  150  A    between atoms: _356  and  _357
REMARK  151  A    between atoms: _356  and  _359
REMARK  152  A    between atoms: _359  and  _360
REMARK  153  A    between atoms: _360  and  _361
REMARK  154  A    between atoms: _363  and  _365
REMARK  155  A    between atoms: _365  and  _366
REMARK  156  A    between atoms: _365  and  _368
REMARK  157  A    between atoms: _368  and  _369
REMARK  158  A    between atoms: _369  and  _370
REMARK  159  A    between atoms: _373  and  _375
REMARK  160  A    between atoms: _375  and  _376
REMARK  161  A    between atoms: _375  and  _378
REMARK  162  A    between atoms: _378  and  _379
REMARK  163  A    between atoms: _384  and  _386
REMARK  164  A    between atoms: _386  and  _387
REMARK  165  A    between atoms: _386  and  _389
REMARK  166  A    between atoms: _389  and  _390
REMARK  167  A    between atoms: _396  and  _398
REMARK  168  A    between atoms: _398  and  _399
REMARK  169  A    between atoms: _398  and  _401
REMARK  170  A    between atoms: _401  and  _402
REMARK  171  A    between atoms: _407  and  _408
REMARK  172  A    between atoms: _410  and  _412
REMARK  173  A    between atoms: _412  and  _413
REMARK  174  A    between atoms: _412  and  _415
REMARK  175  A    between atoms: _415  and  _416
REMARK  176  A    between atoms: _421  and  _422
REMARK  177  A    between atoms: _424  and  _426
REMARK  178  A    between atoms: _426  and  _427
REMARK  179  A    between atoms: _426  and  _429
REMARK  180  A    between atoms: _430  and  _431
REMARK  181  A    between atoms: _431  and  _432
REMARK  182  A    between atoms: _441  and  _443
REMARK  183  A    between atoms: _443  and  _444
REMARK  184  A    between atoms: _443  and  _446
REMARK  185  A    between atoms: _446  and  _447
REMARK  186  A    between atoms: _447  and  _448
REMARK  187  A    between atoms: _450  and  _452
REMARK  188  A    between atoms: _452  and  _453
REMARK  189  A    between atoms: _452  and  _455
REMARK  190  A    between atoms: _455  and  _456
REMARK  191  A    between atoms: _456  and  _457
REMARK  192  A    between atoms: _462  and  _464
REMARK  193  A    between atoms: _464  and  _465
REMARK  194  A    between atoms: _464  and  _467
REMARK  195  A    between atoms: _467  and  _468
REMARK                            x       y       z     vdW  Elec       q    Type
REMARK                         _______ _______ _______ _____ _____    ______ ____
ROOT
ATOM      1  O   HOH     1      15.300   9.041   9.689  0.00  0.00    +0.000 OA
ENDROOT
TORSDOF 0
REMARK  Name = ../refined-set-2016/4k5p/4k5p_pocket.pdb
REMARK  195 active torsions:
REMARK  status: ('A' for Active; 'I' for Inactive)
REMARK    1  A    between atoms: _1  and  _3
REMARK    2  A    between atoms: _3  and  _4
REMARK    3  A    between atoms: _3  and  _6
REMARK    4  A    between atoms: _6  and  _7
REMARK    5  A    between atoms: _10  and  _12
REMARK    6  A    between atoms: _12  and  _13
REMARK    7  A    between atoms: _12  and  _15
REMARK    8  A    between atoms: _15  and  _16
REMARK    9  A    between atoms: _19  and  _21
REMARK   10  A    between atoms: _21  and  _22
REMARK   11  A    between atoms: _21  and  _24
REMARK   12  A    between atoms: _24  and  _25
REMARK   13  A    between atoms: _25  and  _26
REMARK   14  A    between atoms: _31  and  _33
REMARK   15  A    between atoms: _33  and  _34
REMARK   16  A    between atoms: _33  and  _36
REMARK   17  A    between atoms: _38  and  _40
REMARK   18  A    between atoms: _40  and  _41
REMARK   19  A    between atoms: _40  and  _43
REMARK   20  A    between atoms: _43  and  _44
REMARK   21  A    between atoms: _44  and  _45
REMARK   22  A    between atoms: _48  and  _50
REMARK   23  A    between atoms: _50  and  _51
REMARK   24  A    between atoms: _54  and  _56
REMARK   25  A    between atoms: _56  and  _57
REMARK   26  A    between atoms: _56  and  _59
REMARK   27  A    between atoms: _59  and  _60
REMARK   28  A    between atoms: _63  and  _65
REMARK   29  A    between atoms: _65  and  _66
REMARK   30  A    between atoms: _68  and  _70
REMARK   31  A    between atoms: _70  and  _71
REMARK   32  A    between atoms: _70  and  _73
REMARK   33  A    between atoms: _73  and  _74
REMARK   34  A    between atoms: _79  and  _80
REMARK   35  A    between atoms: _82  and  _84
REMARK   36  A    between atoms: _84  and  _85
REMARK   37  A    between atoms: _84  and  _87
REMARK   38  A    between atoms: _87  and  _88
REMARK   39  A    between atoms: _91  and  _93
REMARK   40  A    between atoms: _93  and  _94
REMARK   41  A    between atoms: _93  and  _96
REMARK   42  A    between atoms: _96  and  _97
REMARK   43  A    between atoms: _103  and  _105
REMARK   44  A    between atoms: _105  and  _106
REMARK   45  A    between atoms: _105  and  _108
REMARK   46  A    between atoms: _108  and  _109
REMARK   47  A    between atoms: _114  and  _116
REMARK   48  A    between atoms: _116  and  _117
REMARK   49  A    between atoms: _116  and  _119
REMARK   50  A    between atoms: _122  and  _124
REMARK   51  A    between atoms: _124  and  _125
REMARK   52  A    between atoms: _127  and  _129
REMARK   53  A    between atoms: _129  and  _130
REMARK   54  A    between atoms: _133  and  _135
REMARK   55  A    between atoms: _135  and  _136
REMARK   56  A    between atoms: _135  and  _138
REMARK   57  A    between atoms: _138  and  _139
REMARK   58  A    between atoms: _139  and  _140
REMARK   59  A    between atoms: _142  and  _144
REMARK   60  A    between atoms: _144  and  _145
REMARK   61  A    between atoms: _144  and  _147
REMARK   62  A    between atoms: _147  and  _148
REMARK   63  A    between atoms: _148  and  _149
REMARK   64  A    between atoms: _152  and  _154
REMARK   65  A    between atoms: _154  and  _155
REMARK   66  A    between atoms: _154  and  _157
REMARK   67  A    between atoms: _157  and  _158
REMARK   68  A    between atoms: _163  and  _165
REMARK   69  A    between atoms: _165  and  _166
REMARK   70  A    between atoms: _165  and  _168
REMARK   71  A    between atoms: _168  and  _169
REMARK   72  A    between atoms: _172  and  _174
REMARK   73  A    between atoms: _174  and  _175
REMARK   74  A    between atoms: _174  and  _177
REMARK   75  A    between atoms: _177  and  _178
REMARK   76  A    between atoms: _183  and  _185
REMARK   77  A    between atoms: _185  and  _186
REMARK   78  A    between atoms: _185  and  _188
REMARK   79  A    between atoms: _188  and  _189
REMARK   80  A    between atoms: _189  and  _190
REMARK   81  A    between atoms: _190  and  _191
REMARK   82  A    between atoms: _200  and  _202
REMARK   83  A    between atoms: _202  and  _203
REMARK   84  A    between atoms: _202  and  _205
REMARK   85  A    between atoms: _208  and  _210
REMARK   86  A    between atoms: _210  and  _211
REMARK   87  A    between atoms: _210  and  _213
REMARK   88  A    between atoms: _213  and  _214
REMARK   89  A    between atoms: _218  and  ZN_473
REMARK   90  A    between atoms: _219  and  _221
REMARK   91  A    between atoms: _221  and  _222
REMARK   92  A    between atoms: _221  and  _224
REMARK   93  A    between atoms: _224  and  _225
REMARK   94  A    between atoms: _225  and  _226
REMARK   95  A    between atoms: _229  and  _231
REMARK   96  A    between atoms: _231  and  _232
REMARK   97  A    between atoms: _231  and  _234
REMARK   98  A    between atoms: _234  and  _235
REMARK   99  A    between atoms: _240  and  _241
REMARK  100  A    between atoms: _243  and  _245
REMARK  101  A    between atoms: _245  and  _246
REMARK  102  A    between atoms: _245  and  _248
REMARK  103  A    between atoms: _248  and  _249
REMARK  104  A    between atoms: _253  and  ZN_473
REMARK  105  A    between atoms: _254  and  _256
REMARK  106  A    between atoms: _256  and  _257
REMARK  107  A    between atoms: _256  and  _259
REMARK  108  A    between atoms: _259  and  _260
REMARK  109  A    between atoms: _263  and  _265
REMARK  110  A    between atoms: _265  and  _266
REMARK  111  A    between atoms: _265  and  _268
REMARK  112  A    between atoms: _268  and  _269
REMARK  113  A    between atoms: _274  and  _276
REMARK  114  A    between atoms: _276  and  _277
REMARK  115  A    between atoms: _276  and  _279
REMARK  116  A    between atoms: _279  and  _280
REMARK  117  A    between atoms: _290  and  _292
REMARK  118  A    between atoms: _292  and  _293
REMARK  119  A    between atoms: _292  and  _295
REMARK  120  A    between atoms: _295  and  _296
REMARK  121  A    between atoms: _299  and  _301
REMARK  122  A    between atoms: _301  and  _302
REMARK  123  A    between atoms: _301  and  _304
REMARK  124  A    between atoms: _304  and  _305
REMARK  125  A    between atoms: _305  and  _306
REMARK  126  A    between atoms: _306  and  _307
REMARK  127  A    between atoms: _307  and  _308
REMARK  128  A    between atoms: _312  and  _314
REMARK  129  A    between atoms: _314  and  _315
REMARK  130  A    between atoms: _314  and  _317
REMARK  131  A    between atoms: _317  and  _318
REMARK  132  A    between atoms: _318  and  _319
REMARK  133  A    between atoms: _319  and  _320
REMARK  134  A    between atoms: _320  and  ZN_473
REMARK  135  A    between atoms: _322  and  _324
REMARK  136  A    between atoms: _324  and  _325
REMARK  137  A    between atoms: _327  and  _329
REMARK  138  A    between atoms: _329  and  _330
REMARK  139  A    between atoms: _329  and  _332
REMARK  140  A    between atoms: _332  and  _333
REMARK  141  A    between atoms: _336  and  _338
REMARK  142  A    between atoms: _338  and  _339
REMARK  143  A    between atoms: _338  and  _341
REMARK  144  A    between atoms: _344  and  _346
REMARK  145  A    between atoms: _346  and  _347
REMARK  146  A    between atoms: _346  and  _349
REMARK  147  A    between atoms: _349  and  _350
REMARK  148  A    between atoms: _350  and  _351
REMARK  149  A    between atoms: _354  and  _356
REMARK  150  A    between atoms: _356  and  _357
REMARK  151  A    between atoms: _356  and  _359
REMARK  152  A    between atoms: _359  and  _360
REMARK  153  A    between atoms: _360  and  _361
REMARK  154  A    between atoms: _363  and  _365
REMARK  155  A    between atoms: _365  and  _366
REMARK  156  A    between atoms: _365  and  _368
REMARK  157  A    between atoms: _368  and  _369
REMARK  158  A    between atoms: _369  and  _370
REMARK  159  A    between atoms: _373  and  _375
REMARK  160  A    between atoms: _375  and  _376
REMARK  161  A    between atoms: _375  and  _378
REMARK  162  A    between atoms: _378  and  _379
REMARK  163  A    between atoms: _384  and  _386
REMARK  164  A    between atoms: _386  and  _387
REMARK  165  A    between atoms: _386  and  _389
REMARK  166  A    between atoms: _389  and  _390
REMARK  167  A    between atoms: _396  and  _398
REMARK  168  A    between atoms: _398  and  _399
REMARK  169  A    between atoms: _398  and  _401
REMARK  170  A    between atoms: _401  and  _402
REMARK  171  A    between atoms: _407  and  _408
REMARK  172  A    between atoms: _410  and  _412
REMARK  173  A    between atoms: _412  and  _413
REMARK  174  A    between atoms: _412  and  _415
REMARK  175  A    between atoms: _415  and  _416
REMARK  176  A    between atoms: _421  and  _422
REMARK  177  A    between atoms: _424  and  _426
REMARK  178  A    between atoms: _426  and  _427
REMARK  179  A    between atoms: _426  and  _429
REMARK  180  A    between atoms: _430  and  _431
REMARK  181  A    between atoms: _431  and  _432
REMARK  182  A    between atoms: _441  and  _443
REMARK  183  A    between atoms: _443  and  _444
REMARK  184  A    between atoms: _443  and  _446
REMARK  185  A    between atoms: _446  and  _447
REMARK  186  A    between atoms: _447  and  _448
REMARK  187  A    between atoms: _450  and  _452
REMARK  188  A    between atoms: _452  and  _453
REMARK  189  A    between atoms: _452  and  _455
REMARK  190  A    between atoms: _455  and  _456
REMARK  191  A    between atoms: _456  and  _457
REMARK  192  A    between atoms: _462  and  _464
REMARK  193  A    between atoms: _464  and  _465
REMARK  194  A    between atoms: _464  and  _467
REMARK  195  A    between atoms: _467  and  _468
REMARK                            x       y       z     vdW  Elec       q    Type
REMARK                         _______ _______ _______ _____ _____    ______ ____
ROOT
ATOM      1  O   HOH     1       8.460   9.936  25.580  0.00  0.00    +0.000 OA
ENDROOT
TORSDOF 0
REMARK  Name = ../refined-set-2016/4k5p/4k5p_pocket.pdb
REMARK  195 active torsions:
REMARK  status: ('A' for Active; 'I' for Inactive)
REMARK    1  A    between atoms: _1  and  _3
REMARK    2  A    between atoms: _3  and  _4
REMARK    3  A    between atoms: _3  and  _6
REMARK    4  A    between atoms: _6  and  _7
REMARK    5  A    between atoms: _10  and  _12
REMARK    6  A    between atoms: _12  and  _13
REMARK    7  A    between atoms: _12  and  _15
REMARK    8  A    between atoms: _15  and  _16
REMARK    9  A    between atoms: _19  and  _21
REMARK   10  A    between atoms: _21  and  _22
REMARK   11  A    between atoms: _21  and  _24
REMARK   12  A    between atoms: _24  and  _25
REMARK   13  A    between atoms: _25  and  _26
REMARK   14  A    between atoms: _31  and  _33
REMARK   15  A    between atoms: _33  and  _34
REMARK   16  A    between atoms: _33  and  _36
REMARK   17  A    between atoms: _38  and  _40
REMARK   18  A    between atoms: _40  and  _41
REMARK   19  A    between atoms: _40  and  _43
REMARK   20  A    between atoms: _43  and  _44
REMARK   21  A    between atoms: _44  and  _45
REMARK   22  A    between atoms: _48  and  _50
REMARK   23  A    between atoms: _50  and  _51
REMARK   24  A    between atoms: _54  and  _56
REMARK   25  A    between atoms: _56  and  _57
REMARK   26  A    between atoms: _56  and  _59
REMARK   27  A    between atoms: _59  and  _60
REMARK   28  A    between atoms: _63  and  _65
REMARK   29  A    between atoms: _65  and  _66
REMARK   30  A    between atoms: _68  and  _70
REMARK   31  A    between atoms: _70  and  _71
REMARK   32  A    between atoms: _70  and  _73
REMARK   33  A    between atoms: _73  and  _74
REMARK   34  A    between atoms: _79  and  _80
REMARK   35  A    between atoms: _82  and  _84
REMARK   36  A    between atoms: _84  and  _85
REMARK   37  A    between atoms: _84  and  _87
REMARK   38  A    between atoms: _87  and  _88
REMARK   39  A    between atoms: _91  and  _93
REMARK   40  A    between atoms: _93  and  _94
REMARK   41  A    between atoms: _93  and  _96
REMARK   42  A    between atoms: _96  and  _97
REMARK   43  A    between atoms: _103  and  _105
REMARK   44  A    between atoms: _105  and  _106
REMARK   45  A    between atoms: _105  and  _108
REMARK   46  A    between atoms: _108  and  _109
REMARK   47  A    between atoms: _114  and  _116
REMARK   48  A    between atoms: _116  and  _117
REMARK   49  A    between atoms: _116  and  _119
REMARK   50  A    between atoms: _122  and  _124
REMARK   51  A    between atoms: _124  and  _125
REMARK   52  A    between atoms: _127  and  _129
REMARK   53  A    between atoms: _129  and  _130
REMARK   54  A    between atoms: _133  and  _135
REMARK   55  A    between atoms: _135  and  _136
REMARK   56  A    between atoms: _135  and  _138
REMARK   57  A    between atoms: _138  and  _139
REMARK   58  A    between atoms: _139  and  _140
REMARK   59  A    between atoms: _142  and  _144
REMARK   60  A    between atoms: _144  and  _145
REMARK   61  A    between atoms: _144  and  _147
REMARK   62  A    between atoms: _147  and  _148
REMARK   63  A    between atoms: _148  and  _149
REMARK   64  A    between atoms: _152  and  _154
REMARK   65  A    between atoms: _154  and  _155
REMARK   66  A    between atoms: _154  and  _157
REMARK   67  A    between atoms: _157  and  _158
REMARK   68  A    between atoms: _163  and  _165
REMARK   69  A    between atoms: _165  and  _166
REMARK   70  A    between atoms: _165  and  _168
REMARK   71  A    between atoms: _168  and  _169
REMARK   72  A    between atoms: _172  and  _174
REMARK   73  A    between atoms: _174  and  _175
REMARK   74  A    between atoms: _174  and  _177
REMARK   75  A    between atoms: _177  and  _178
REMARK   76  A    between atoms: _183  and  _185
REMARK   77  A    between atoms: _185  and  _186
REMARK   78  A    between atoms: _185  and  _188
REMARK   79  A    between atoms: _188  and  _189
REMARK   80  A    between atoms: _189  and  _190
REMARK   81  A    between atoms: _190  and  _191
REMARK   82  A    between atoms: _200  and  _202
REMARK   83  A    between atoms: _202  and  _203
REMARK   84  A    between atoms: _202  and  _205
REMARK   85  A    between atoms: _208  and  _210
REMARK   86  A    between atoms: _210  and  _211
REMARK   87  A    between atoms: _210  and  _213
REMARK   88  A    between atoms: _213  and  _214
REMARK   89  A    between atoms: _218  and  ZN_473
REMARK   90  A    between atoms: _219  and  _221
REMARK   91  A    between atoms: _221  and  _222
REMARK   92  A    between atoms: _221  and  _224
REMARK   93  A    between atoms: _224  and  _225
REMARK   94  A    between atoms: _225  and  _226
REMARK   95  A    between atoms: _229  and  _231
REMARK   96  A    between atoms: _231  and  _232
REMARK   97  A    between atoms: _231  and  _234
REMARK   98  A    between atoms: _234  and  _235
REMARK   99  A    between atoms: _240  and  _241
REMARK  100  A    between atoms: _243  and  _245
REMARK  101  A    between atoms: _245  and  _246
REMARK  102  A    between atoms: _245  and  _248
REMARK  103  A    between atoms: _248  and  _249
REMARK  104  A    between atoms: _253  and  ZN_473
REMARK  105  A    between atoms: _254  and  _256
REMARK  106  A    between atoms: _256  and  _257
REMARK  107  A    between atoms: _256  and  _259
REMARK  108  A    between atoms: _259  and  _260
REMARK  109  A    between atoms: _263  and  _265
REMARK  110  A    between atoms: _265  and  _266
REMARK  111  A    between atoms: _265  and  _268
REMARK  112  A    between atoms: _268  and  _269
REMARK  113  A    between atoms: _274  and  _276
REMARK  114  A    between atoms: _276  and  _277
REMARK  115  A    between atoms: _276  and  _279
REMARK  116  A    between atoms: _279  and  _280
REMARK  117  A    between atoms: _290  and  _292
REMARK  118  A    between atoms: _292  and  _293
REMARK  119  A    between atoms: _292  and  _295
REMARK  120  A    between atoms: _295  and  _296
REMARK  121  A    between atoms: _299  and  _301
REMARK  122  A    between atoms: _301  and  _302
REMARK  123  A    between atoms: _301  and  _304
REMARK  124  A    between atoms: _304  and  _305
REMARK  125  A    between atoms: _305  and  _306
REMARK  126  A    between atoms: _306  and  _307
REMARK  127  A    between atoms: _307  and  _308
REMARK  128  A    between atoms: _312  and  _314
REMARK  129  A    between atoms: _314  and  _315
REMARK  130  A    between atoms: _314  and  _317
REMARK  131  A    between atoms: _317  and  _318
REMARK  132  A    between atoms: _318  and  _319
REMARK  133  A    between atoms: _319  and  _320
REMARK  134  A    between atoms: _320  and  ZN_473
REMARK  135  A    between atoms: _322  and  _324
REMARK  136  A    between atoms: _324  and  _325
REMARK  137  A    between atoms: _327  and  _329
REMARK  138  A    between atoms: _329  and  _330
REMARK  139  A    between atoms: _329  and  _332
REMARK  140  A    between atoms: _332  and  _333
REMARK  141  A    between atoms: _336  and  _338
REMARK  142  A    between atoms: _338  and  _339
REMARK  143  A    between atoms: _338  and  _341
REMARK  144  A    between atoms: _344  and  _346
REMARK  145  A    between atoms: _346  and  _347
REMARK  146  A    between atoms: _346  and  _349
REMARK  147  A    between atoms: _349  and  _350
REMARK  148  A    between atoms: _350  and  _351
REMARK  149  A    between atoms: _354  and  _356
REMARK  150  A    between atoms: _356  and  _357
REMARK  151  A    between atoms: _356  and  _359
REMARK  152  A    between atoms: _359  and  _360
REMARK  153  A    between atoms: _360  and  _361
REMARK  154  A    between atoms: _363  and  _365
REMARK  155  A    between atoms: _365  and  _366
REMARK  156  A    between atoms: _365  and  _368
REMARK  157  A    between atoms: _368  and  _369
REMARK  158  A    between atoms: _369  and  _370
REMARK  159  A    between atoms: _373  and  _375
REMARK  160  A    between atoms: _375  and  _376
REMARK  161  A    between atoms: _375  and  _378
REMARK  162  A    between atoms: _378  and  _379
REMARK  163  A    between atoms: _384  and  _386
REMARK  164  A    between atoms: _386  and  _387
REMARK  165  A    between atoms: _386  and  _389
REMARK  166  A    between atoms: _389  and  _390
REMARK  167  A    between atoms: _396  and  _398
REMARK  168  A    between atoms: _398  and  _399
REMARK  169  A    between atoms: _398  and  _401
REMARK  170  A    between atoms: _401  and  _402
REMARK  171  A    between atoms: _407  and  _408
REMARK  172  A    between atoms: _410  and  _412
REMARK  173  A    between atoms: _412  and  _413
REMARK  174  A    between atoms: _412  and  _415
REMARK  175  A    between atoms: _415  and  _416
REMARK  176  A    between atoms: _421  and  _422
REMARK  177  A    between atoms: _424  and  _426
REMARK  178  A    between atoms: _426  and  _427
REMARK  179  A    between atoms: _426  and  _429
REMARK  180  A    between atoms: _430  and  _431
REMARK  181  A    between atoms: _431  and  _432
REMARK  182  A    between atoms: _441  and  _443
REMARK  183  A    between atoms: _443  and  _444
REMARK  184  A    between atoms: _443  and  _446
REMARK  185  A    between atoms: _446  and  _447
REMARK  186  A    between atoms: _447  and  _448
REMARK  187  A    between atoms: _450  and  _452
REMARK  188  A    between atoms: _452  and  _453
REMARK  189  A    between atoms: _452  and  _455
REMARK  190  A    between atoms: _455  and  _456
REMARK  191  A    between atoms: _456  and  _457
REMARK  192  A    between atoms: _462  and  _464
REMARK  193  A    between atoms: _464  and  _465
REMARK  194  A    between atoms: _464  and  _467
REMARK  195  A    between atoms: _467  and  _468
REMARK                            x       y       z     vdW  Elec       q    Type
REMARK                         _______ _______ _______ _____ _____    ______ ____
ROOT
ATOM      1  O   HOH     1      18.599   6.534   8.927  0.00  0.00    +0.000 OA
ENDROOT
TORSDOF 0
REMARK  Name = ../refined-set-2016/4k5p/4k5p_pocket.pdb
REMARK  195 active torsions:
REMARK  status: ('A' for Active; 'I' for Inactive)
REMARK    1  A    between atoms: _1  and  _3
REMARK    2  A    between atoms: _3  and  _4
REMARK    3  A    between atoms: _3  and  _6
REMARK    4  A    between atoms: _6  and  _7
REMARK    5  A    between atoms: _10  and  _12
REMARK    6  A    between atoms: _12  and  _13
REMARK    7  A    between atoms: _12  and  _15
REMARK    8  A    between atoms: _15  and  _16
REMARK    9  A    between atoms: _19  and  _21
REMARK   10  A    between atoms: _21  and  _22
REMARK   11  A    between atoms: _21  and  _24
REMARK   12  A    between atoms: _24  and  _25
REMARK   13  A    between atoms: _25  and  _26
REMARK   14  A    between atoms: _31  and  _33
REMARK   15  A    between atoms: _33  and  _34
REMARK   16  A    between atoms: _33  and  _36
REMARK   17  A    between atoms: _38  and  _40
REMARK   18  A    between atoms: _40  and  _41
REMARK   19  A    between atoms: _40  and  _43
REMARK   20  A    between atoms: _43  and  _44
REMARK   21  A    between atoms: _44  and  _45
REMARK   22  A    between atoms: _48  and  _50
REMARK   23  A    between atoms: _50  and  _51
REMARK   24  A    between atoms: _54  and  _56
REMARK   25  A    between atoms: _56  and  _57
REMARK   26  A    between atoms: _56  and  _59
REMARK   27  A    between atoms: _59  and  _60
REMARK   28  A    between atoms: _63  and  _65
REMARK   29  A    between atoms: _65  and  _66
REMARK   30  A    between atoms: _68  and  _70
REMARK   31  A    between atoms: _70  and  _71
REMARK   32  A    between atoms: _70  and  _73
REMARK   33  A    between atoms: _73  and  _74
REMARK   34  A    between atoms: _79  and  _80
REMARK   35  A    between atoms: _82  and  _84
REMARK   36  A    between atoms: _84  and  _85
REMARK   37  A    between atoms: _84  and  _87
REMARK   38  A    between atoms: _87  and  _88
REMARK   39  A    between atoms: _91  and  _93
REMARK   40  A    between atoms: _93  and  _94
REMARK   41  A    between atoms: _93  and  _96
REMARK   42  A    between atoms: _96  and  _97
REMARK   43  A    between atoms: _103  and  _105
REMARK   44  A    between atoms: _105  and  _106
REMARK   45  A    between atoms: _105  and  _108
REMARK   46  A    between atoms: _108  and  _109
REMARK   47  A    between atoms: _114  and  _116
REMARK   48  A    between atoms: _116  and  _117
REMARK   49  A    between atoms: _116  and  _119
REMARK   50  A    between atoms: _122  and  _124
REMARK   51  A    between atoms: _124  and  _125
REMARK   52  A    between atoms: _127  and  _129
REMARK   53  A    between atoms: _129  and  _130
REMARK   54  A    between atoms: _133  and  _135
REMARK   55  A    between atoms: _135  and  _136
REMARK   56  A    between atoms: _135  and  _138
REMARK   57  A    between atoms: _138  and  _139
REMARK   58  A    between atoms: _139  and  _140
REMARK   59  A    between atoms: _142  and  _144
REMARK   60  A    between atoms: _144  and  _145
REMARK   61  A    between atoms: _144  and  _147
REMARK   62  A    between atoms: _147  and  _148
REMARK   63  A    between atoms: _148  and  _149
REMARK   64  A    between atoms: _152  and  _154
REMARK   65  A    between atoms: _154  and  _155
REMARK   66  A    between atoms: _154  and  _157
REMARK   67  A    between atoms: _157  and  _158
REMARK   68  A    between atoms: _163  and  _165
REMARK   69  A    between atoms: _165  and  _166
REMARK   70  A    between atoms: _165  and  _168
REMARK   71  A    between atoms: _168  and  _169
REMARK   72  A    between atoms: _172  and  _174
REMARK   73  A    between atoms: _174  and  _175
REMARK   74  A    between atoms: _174  and  _177
REMARK   75  A    between atoms: _177  and  _178
REMARK   76  A    between atoms: _183  and  _185
REMARK   77  A    between atoms: _185  and  _186
REMARK   78  A    between atoms: _185  and  _188
REMARK   79  A    between atoms: _188  and  _189
REMARK   80  A    between atoms: _189  and  _190
REMARK   81  A    between atoms: _190  and  _191
REMARK   82  A    between atoms: _200  and  _202
REMARK   83  A    between atoms: _202  and  _203
REMARK   84  A    between atoms: _202  and  _205
REMARK   85  A    between atoms: _208  and  _210
REMARK   86  A    between atoms: _210  and  _211
REMARK   87  A    between atoms: _210  and  _213
REMARK   88  A    between atoms: _213  and  _214
REMARK   89  A    between atoms: _218  and  ZN_473
REMARK   90  A    between atoms: _219  and  _221
REMARK   91  A    between atoms: _221  and  _222
REMARK   92  A    between atoms: _221  and  _224
REMARK   93  A    between atoms: _224  and  _225
REMARK   94  A    between atoms: _225  and  _226
REMARK   95  A    between atoms: _229  and  _231
REMARK   96  A    between atoms: _231  and  _232
REMARK   97  A    between atoms: _231  and  _234
REMARK   98  A    between atoms: _234  and  _235
REMARK   99  A    between atoms: _240  and  _241
REMARK  100  A    between atoms: _243  and  _245
REMARK  101  A    between atoms: _245  and  _246
REMARK  102  A    between atoms: _245  and  _248
REMARK  103  A    between atoms: _248  and  _249
REMARK  104  A    between atoms: _253  and  ZN_473
REMARK  105  A    between atoms: _254  and  _256
REMARK  106  A    between atoms: _256  and  _257
REMARK  107  A    between atoms: _256  and  _259
REMARK  108  A    between atoms: _259  and  _260
REMARK  109  A    between atoms: _263  and  _265
REMARK  110  A    between atoms: _265  and  _266
REMARK  111  A    between atoms: _265  and  _268
REMARK  112  A    between atoms: _268  and  _269
REMARK  113  A    between atoms: _274  and  _276
REMARK  114  A    between atoms: _276  and  _277
REMARK  115  A    between atoms: _276  and  _279
REMARK  116  A    between atoms: _279  and  _280
REMARK  117  A    between atoms: _290  and  _292
REMARK  118  A    between atoms: _292  and  _293
REMARK  119  A    between atoms: _292  and  _295
REMARK  120  A    between atoms: _295  and  _296
REMARK  121  A    between atoms: _299  and  _301
REMARK  122  A    between atoms: _301  and  _302
REMARK  123  A    between atoms: _301  and  _304
REMARK  124  A    between atoms: _304  and  _305
REMARK  125  A    between atoms: _305  and  _306
REMARK  126  A    between atoms: _306  and  _307
REMARK  127  A    between atoms: _307  and  _308
REMARK  128  A    between atoms: _312  and  _314
REMARK  129  A    between atoms: _314  and  _315
REMARK  130  A    between atoms: _314  and  _317
REMARK  131  A    between atoms: _317  and  _318
REMARK  132  A    between atoms: _318  and  _319
REMARK  133  A    between atoms: _319  and  _320
REMARK  134  A    between atoms: _320  and  ZN_473
REMARK  135  A    between atoms: _322  and  _324
REMARK  136  A    between atoms: _324  and  _325
REMARK  137  A    between atoms: _327  and  _329
REMARK  138  A    between atoms: _329  and  _330
REMARK  139  A    between atoms: _329  and  _332
REMARK  140  A    between atoms: _332  and  _333
REMARK  141  A    between atoms: _336  and  _338
REMARK  142  A    between atoms: _338  and  _339
REMARK  143  A    between atoms: _338  and  _341
REMARK  144  A    between atoms: _344  and  _346
REMARK  145  A    between atoms: _346  and  _347
REMARK  146  A    between atoms: _346  and  _349
REMARK  147  A    between atoms: _349  and  _350
REMARK  148  A    between atoms: _350  and  _351
REMARK  149  A    between atoms: _354  and  _356
REMARK  150  A    between atoms: _356  and  _357
REMARK  151  A    between atoms: _356  and  _359
REMARK  152  A    between atoms: _359  and  _360
REMARK  153  A    between atoms: _360  and  _361
REMARK  154  A    between atoms: _363  and  _365
REMARK  155  A    between atoms: _365  and  _366
REMARK  156  A    between atoms: _365  and  _368
REMARK  157  A    between atoms: _368  and  _369
REMARK  158  A    between atoms: _369  and  _370
REMARK  159  A    between atoms: _373  and  _375
REMARK  160  A    between atoms: _375  and  _376
REMARK  161  A    between atoms: _375  and  _378
REMARK  162  A    between atoms: _378  and  _379
REMARK  163  A    between atoms: _384  and  _386
REMARK  164  A    between atoms: _386  and  _387
REMARK  165  A    between atoms: _386  and  _389
REMARK  166  A    between atoms: _389  and  _390
REMARK  167  A    between atoms: _396  and  _398
REMARK  168  A    between atoms: _398  and  _399
REMARK  169  A    between atoms: _398  and  _401
REMARK  170  A    between atoms: _401  and  _402
REMARK  171  A    between atoms: _407  and  _408
REMARK  172  A    between atoms: _410  and  _412
REMARK  173  A    between atoms: _412  and  _413
REMARK  174  A    between atoms: _412  and  _415
REMARK  175  A    between atoms: _415  and  _416
REMARK  176  A    between atoms: _421  and  _422
REMARK  177  A    between atoms: _424  and  _426
REMARK  178  A    between atoms: _426  and  _427
REMARK  179  A    between atoms: _426  and  _429
REMARK  180  A    between atoms: _430  and  _431
REMARK  181  A    between atoms: _431  and  _432
REMARK  182  A    between atoms: _441  and  _443
REMARK  183  A    between atoms: _443  and  _444
REMARK  184  A    between atoms: _443  and  _446
REMARK  185  A    between atoms: _446  and  _447
REMARK  186  A    between atoms: _447  and  _448
REMARK  187  A    between atoms: _450  and  _452
REMARK  188  A    between atoms: _452  and  _453
REMARK  189  A    between atoms: _452  and  _455
REMARK  190  A    between atoms: _455  and  _456
REMARK  191  A    between atoms: _456  and  _457
REMARK  192  A    between atoms: _462  and  _464
REMARK  193  A    between atoms: _464  and  _465
REMARK  194  A    between atoms: _464  and  _467
REMARK  195  A    between atoms: _467  and  _468
REMARK                            x       y       z     vdW  Elec       q    Type
REMARK                         _______ _______ _______ _____ _____    ______ ____
ROOT
ATOM      1  O   HOH     1      17.207   8.711   7.752  0.00  0.00    +0.000 OA
ENDROOT
TORSDOF 0
REMARK  Name = ../refined-set-2016/4k5p/4k5p_pocket.pdb
REMARK  195 active torsions:
REMARK  status: ('A' for Active; 'I' for Inactive)
REMARK    1  A    between atoms: _1  and  _3
REMARK    2  A    between atoms: _3  and  _4
REMARK    3  A    between atoms: _3  and  _6
REMARK    4  A    between atoms: _6  and  _7
REMARK    5  A    between atoms: _10  and  _12
REMARK    6  A    between atoms: _12  and  _13
REMARK    7  A    between atoms: _12  and  _15
REMARK    8  A    between atoms: _15  and  _16
REMARK    9  A    between atoms: _19  and  _21
REMARK   10  A    between atoms: _21  and  _22
REMARK   11  A    between atoms: _21  and  _24
REMARK   12  A    between atoms: _24  and  _25
REMARK   13  A    between atoms: _25  and  _26
REMARK   14  A    between atoms: _31  and  _33
REMARK   15  A    between atoms: _33  and  _34
REMARK   16  A    between atoms: _33  and  _36
REMARK   17  A    between atoms: _38  and  _40
REMARK   18  A    between atoms: _40  and  _41
REMARK   19  A    between atoms: _40  and  _43
REMARK   20  A    between atoms: _43  and  _44
REMARK   21  A    between atoms: _44  and  _45
REMARK   22  A    between atoms: _48  and  _50
REMARK   23  A    between atoms: _50  and  _51
REMARK   24  A    between atoms: _54  and  _56
REMARK   25  A    between atoms: _56  and  _57
REMARK   26  A    between atoms: _56  and  _59
REMARK   27  A    between atoms: _59  and  _60
REMARK   28  A    between atoms: _63  and  _65
REMARK   29  A    between atoms: _65  and  _66
REMARK   30  A    between atoms: _68  and  _70
REMARK   31  A    between atoms: _70  and  _71
REMARK   32  A    between atoms: _70  and  _73
REMARK   33  A    between atoms: _73  and  _74
REMARK   34  A    between atoms: _79  and  _80
REMARK   35  A    between atoms: _82  and  _84
REMARK   36  A    between atoms: _84  and  _85
REMARK   37  A    between atoms: _84  and  _87
REMARK   38  A    between atoms: _87  and  _88
REMARK   39  A    between atoms: _91  and  _93
REMARK   40  A    between atoms: _93  and  _94
REMARK   41  A    between atoms: _93  and  _96
REMARK   42  A    between atoms: _96  and  _97
REMARK   43  A    between atoms: _103  and  _105
REMARK   44  A    between atoms: _105  and  _106
REMARK   45  A    between atoms: _105  and  _108
REMARK   46  A    between atoms: _108  and  _109
REMARK   47  A    between atoms: _114  and  _116
REMARK   48  A    between atoms: _116  and  _117
REMARK   49  A    between atoms: _116  and  _119
REMARK   50  A    between atoms: _122  and  _124
REMARK   51  A    between atoms: _124  and  _125
REMARK   52  A    between atoms: _127  and  _129
REMARK   53  A    between atoms: _129  and  _130
REMARK   54  A    between atoms: _133  and  _135
REMARK   55  A    between atoms: _135  and  _136
REMARK   56  A    between atoms: _135  and  _138
REMARK   57  A    between atoms: _138  and  _139
REMARK   58  A    between atoms: _139  and  _140
REMARK   59  A    between atoms: _142  and  _144
REMARK   60  A    between atoms: _144  and  _145
REMARK   61  A    between atoms: _144  and  _147
REMARK   62  A    between atoms: _147  and  _148
REMARK   63  A    between atoms: _148  and  _149
REMARK   64  A    between atoms: _152  and  _154
REMARK   65  A    between atoms: _154  and  _155
REMARK   66  A    between atoms: _154  and  _157
REMARK   67  A    between atoms: _157  and  _158
REMARK   68  A    between atoms: _163  and  _165
REMARK   69  A    between atoms: _165  and  _166
REMARK   70  A    between atoms: _165  and  _168
REMARK   71  A    between atoms: _168  and  _169
REMARK   72  A    between atoms: _172  and  _174
REMARK   73  A    between atoms: _174  and  _175
REMARK   74  A    between atoms: _174  and  _177
REMARK   75  A    between atoms: _177  and  _178
REMARK   76  A    between atoms: _183  and  _185
REMARK   77  A    between atoms: _185  and  _186
REMARK   78  A    between atoms: _185  and  _188
REMARK   79  A    between atoms: _188  and  _189
REMARK   80  A    between atoms: _189  and  _190
REMARK   81  A    between atoms: _190  and  _191
REMARK   82  A    between atoms: _200  and  _202
REMARK   83  A    between atoms: _202  and  _203
REMARK   84  A    between atoms: _202  and  _205
REMARK   85  A    between atoms: _208  and  _210
REMARK   86  A    between atoms: _210  and  _211
REMARK   87  A    between atoms: _210  and  _213
REMARK   88  A    between atoms: _213  and  _214
REMARK   89  A    between atoms: _218  and  ZN_473
REMARK   90  A    between atoms: _219  and  _221
REMARK   91  A    between atoms: _221  and  _222
REMARK   92  A    between atoms: _221  and  _224
REMARK   93  A    between atoms: _224  and  _225
REMARK   94  A    between atoms: _225  and  _226
REMARK   95  A    between atoms: _229  and  _231
REMARK   96  A    between atoms: _231  and  _232
REMARK   97  A    between atoms: _231  and  _234
REMARK   98  A    between atoms: _234  and  _235
REMARK   99  A    between atoms: _240  and  _241
REMARK  100  A    between atoms: _243  and  _245
REMARK  101  A    between atoms: _245  and  _246
REMARK  102  A    between atoms: _245  and  _248
REMARK  103  A    between atoms: _248  and  _249
REMARK  104  A    between atoms: _253  and  ZN_473
REMARK  105  A    between atoms: _254  and  _256
REMARK  106  A    between atoms: _256  and  _257
REMARK  107  A    between atoms: _256  and  _259
REMARK  108  A    between atoms: _259  and  _260
REMARK  109  A    between atoms: _263  and  _265
REMARK  110  A    between atoms: _265  and  _266
REMARK  111  A    between atoms: _265  and  _268
REMARK  112  A    between atoms: _268  and  _269
REMARK  113  A    between atoms: _274  and  _276
REMARK  114  A    between atoms: _276  and  _277
REMARK  115  A    between atoms: _276  and  _279
REMARK  116  A    between atoms: _279  and  _280
REMARK  117  A    between atoms: _290  and  _292
REMARK  118  A    between atoms: _292  and  _293
REMARK  119  A    between atoms: _292  and  _295
REMARK  120  A    between atoms: _295  and  _296
REMARK  121  A    between atoms: _299  and  _301
REMARK  122  A    between atoms: _301  and  _302
REMARK  123  A    between atoms: _301  and  _304
REMARK  124  A    between atoms: _304  and  _305
REMARK  125  A    between atoms: _305  and  _306
REMARK  126  A    between atoms: _306  and  _307
REMARK  127  A    between atoms: _307  and  _308
REMARK  128  A    between atoms: _312  and  _314
REMARK  129  A    between atoms: _314  and  _315
REMARK  130  A    between atoms: _314  and  _317
REMARK  131  A    between atoms: _317  and  _318
REMARK  132  A    between atoms: _318  and  _319
REMARK  133  A    between atoms: _319  and  _320
REMARK  134  A    between atoms: _320  and  ZN_473
REMARK  135  A    between atoms: _322  and  _324
REMARK  136  A    between atoms: _324  and  _325
REMARK  137  A    between atoms: _327  and  _329
REMARK  138  A    between atoms: _329  and  _330
REMARK  139  A    between atoms: _329  and  _332
REMARK  140  A    between atoms: _332  and  _333
REMARK  141  A    between atoms: _336  and  _338
REMARK  142  A    between atoms: _338  and  _339
REMARK  143  A    between atoms: _338  and  _341
REMARK  144  A    between atoms: _344  and  _346
REMARK  145  A    between atoms: _346  and  _347
REMARK  146  A    between atoms: _346  and  _349
REMARK  147  A    between atoms: _349  and  _350
REMARK  148  A    between atoms: _350  and  _351
REMARK  149  A    between atoms: _354  and  _356
REMARK  150  A    between atoms: _356  and  _357
REMARK  151  A    between atoms: _356  and  _359
REMARK  152  A    between atoms: _359  and  _360
REMARK  153  A    between atoms: _360  and  _361
REMARK  154  A    between atoms: _363  and  _365
REMARK  155  A    between atoms: _365  and  _366
REMARK  156  A    between atoms: _365  and  _368
REMARK  157  A    between atoms: _368  and  _369
REMARK  158  A    between atoms: _369  and  _370
REMARK  159  A    between atoms: _373  and  _375
REMARK  160  A    between atoms: _375  and  _376
REMARK  161  A    between atoms: _375  and  _378
REMARK  162  A    between atoms: _378  and  _379
REMARK  163  A    between atoms: _384  and  _386
REMARK  164  A    between atoms: _386  and  _387
REMARK  165  A    between atoms: _386  and  _389
REMARK  166  A    between atoms: _389  and  _390
REMARK  167  A    between atoms: _396  and  _398
REMARK  168  A    between atoms: _398  and  _399
REMARK  169  A    between atoms: _398  and  _401
REMARK  170  A    between atoms: _401  and  _402
REMARK  171  A    between atoms: _407  and  _408
REMARK  172  A    between atoms: _410  and  _412
REMARK  173  A    between atoms: _412  and  _413
REMARK  174  A    between atoms: _412  and  _415
REMARK  175  A    between atoms: _415  and  _416
REMARK  176  A    between atoms: _421  and  _422
REMARK  177  A    between atoms: _424  and  _426
REMARK  178  A    between atoms: _426  and  _427
REMARK  179  A    between atoms: _426  and  _429
REMARK  180  A    between atoms: _430  and  _431
REMARK  181  A    between atoms: _431  and  _432
REMARK  182  A    between atoms: _441  and  _443
REMARK  183  A    between atoms: _443  and  _444
REMARK  184  A    between atoms: _443  and  _446
REMARK  185  A    between atoms: _446  and  _447
REMARK  186  A    between atoms: _447  and  _448
REMARK  187  A    between atoms: _450  and  _452
REMARK  188  A    between atoms: _452  and  _453
REMARK  189  A    between atoms: _452  and  _455
REMARK  190  A    between atoms: _455  and  _456
REMARK  191  A    between atoms: _456  and  _457
REMARK  192  A    between atoms: _462  and  _464
REMARK  193  A    between atoms: _464  and  _465
REMARK  194  A    between atoms: _464  and  _467
REMARK  195  A    between atoms: _467  and  _468
REMARK                            x       y       z     vdW  Elec       q    Type
REMARK                         _______ _______ _______ _____ _____    ______ ____
ROOT
ATOM      1  O   HOH     1      19.208   7.459  15.164  0.00  0.00    +0.000 OA
ENDROOT
TORSDOF 0
REMARK  Name = ../refined-set-2016/4k5p/4k5p_pocket.pdb
REMARK  195 active torsions:
REMARK  status: ('A' for Active; 'I' for Inactive)
REMARK    1  A    between atoms: _1  and  _3
REMARK    2  A    between atoms: _3  and  _4
REMARK    3  A    between atoms: _3  and  _6
REMARK    4  A    between atoms: _6  and  _7
REMARK    5  A    between atoms: _10  and  _12
REMARK    6  A    between atoms: _12  and  _13
REMARK    7  A    between atoms: _12  and  _15
REMARK    8  A    between atoms: _15  and  _16
REMARK    9  A    between atoms: _19  and  _21
REMARK   10  A    between atoms: _21  and  _22
REMARK   11  A    between atoms: _21  and  _24
REMARK   12  A    between atoms: _24  and  _25
REMARK   13  A    between atoms: _25  and  _26
REMARK   14  A    between atoms: _31  and  _33
REMARK   15  A    between atoms: _33  and  _34
REMARK   16  A    between atoms: _33  and  _36
REMARK   17  A    between atoms: _38  and  _40
REMARK   18  A    between atoms: _40  and  _41
REMARK   19  A    between atoms: _40  and  _43
REMARK   20  A    between atoms: _43  and  _44
REMARK   21  A    between atoms: _44  and  _45
REMARK   22  A    between atoms: _48  and  _50
REMARK   23  A    between atoms: _50  and  _51
REMARK   24  A    between atoms: _54  and  _56
REMARK   25  A    between atoms: _56  and  _57
REMARK   26  A    between atoms: _56  and  _59
REMARK   27  A    between atoms: _59  and  _60
REMARK   28  A    between atoms: _63  and  _65
REMARK   29  A    between atoms: _65  and  _66
REMARK   30  A    between atoms: _68  and  _70
REMARK   31  A    between atoms: _70  and  _71
REMARK   32  A    between atoms: _70  and  _73
REMARK   33  A    between atoms: _73  and  _74
REMARK   34  A    between atoms: _79  and  _80
REMARK   35  A    between atoms: _82  and  _84
REMARK   36  A    between atoms: _84  and  _85
REMARK   37  A    between atoms: _84  and  _87
REMARK   38  A    between atoms: _87  and  _88
REMARK   39  A    between atoms: _91  and  _93
REMARK   40  A    between atoms: _93  and  _94
REMARK   41  A    between atoms: _93  and  _96
REMARK   42  A    between atoms: _96  and  _97
REMARK   43  A    between atoms: _103  and  _105
REMARK   44  A    between atoms: _105  and  _106
REMARK   45  A    between atoms: _105  and  _108
REMARK   46  A    between atoms: _108  and  _109
REMARK   47  A    between atoms: _114  and  _116
REMARK   48  A    between atoms: _116  and  _117
REMARK   49  A    between atoms: _116  and  _119
REMARK   50  A    between atoms: _122  and  _124
REMARK   51  A    between atoms: _124  and  _125
REMARK   52  A    between atoms: _127  and  _129
REMARK   53  A    between atoms: _129  and  _130
REMARK   54  A    between atoms: _133  and  _135
REMARK   55  A    between atoms: _135  and  _136
REMARK   56  A    between atoms: _135  and  _138
REMARK   57  A    between atoms: _138  and  _139
REMARK   58  A    between atoms: _139  and  _140
REMARK   59  A    between atoms: _142  and  _144
REMARK   60  A    between atoms: _144  and  _145
REMARK   61  A    between atoms: _144  and  _147
REMARK   62  A    between atoms: _147  and  _148
REMARK   63  A    between atoms: _148  and  _149
REMARK   64  A    between atoms: _152  and  _154
REMARK   65  A    between atoms: _154  and  _155
REMARK   66  A    between atoms: _154  and  _157
REMARK   67  A    between atoms: _157  and  _158
REMARK   68  A    between atoms: _163  and  _165
REMARK   69  A    between atoms: _165  and  _166
REMARK   70  A    between atoms: _165  and  _168
REMARK   71  A    between atoms: _168  and  _169
REMARK   72  A    between atoms: _172  and  _174
REMARK   73  A    between atoms: _174  and  _175
REMARK   74  A    between atoms: _174  and  _177
REMARK   75  A    between atoms: _177  and  _178
REMARK   76  A    between atoms: _183  and  _185
REMARK   77  A    between atoms: _185  and  _186
REMARK   78  A    between atoms: _185  and  _188
REMARK   79  A    between atoms: _188  and  _189
REMARK   80  A    between atoms: _189  and  _190
REMARK   81  A    between atoms: _190  and  _191
REMARK   82  A    between atoms: _200  and  _202
REMARK   83  A    between atoms: _202  and  _203
REMARK   84  A    between atoms: _202  and  _205
REMARK   85  A    between atoms: _208  and  _210
REMARK   86  A    between atoms: _210  and  _211
REMARK   87  A    between atoms: _210  and  _213
REMARK   88  A    between atoms: _213  and  _214
REMARK   89  A    between atoms: _218  and  ZN_473
REMARK   90  A    between atoms: _219  and  _221
REMARK   91  A    between atoms: _221  and  _222
REMARK   92  A    between atoms: _221  and  _224
REMARK   93  A    between atoms: _224  and  _225
REMARK   94  A    between atoms: _225  and  _226
REMARK   95  A    between atoms: _229  and  _231
REMARK   96  A    between atoms: _231  and  _232
REMARK   97  A    between atoms: _231  and  _234
REMARK   98  A    between atoms: _234  and  _235
REMARK   99  A    between atoms: _240  and  _241
REMARK  100  A    between atoms: _243  and  _245
REMARK  101  A    between atoms: _245  and  _246
REMARK  102  A    between atoms: _245  and  _248
REMARK  103  A    between atoms: _248  and  _249
REMARK  104  A    between atoms: _253  and  ZN_473
REMARK  105  A    between atoms: _254  and  _256
REMARK  106  A    between atoms: _256  and  _257
REMARK  107  A    between atoms: _256  and  _259
REMARK  108  A    between atoms: _259  and  _260
REMARK  109  A    between atoms: _263  and  _265
REMARK  110  A    between atoms: _265  and  _266
REMARK  111  A    between atoms: _265  and  _268
REMARK  112  A    between atoms: _268  and  _269
REMARK  113  A    between atoms: _274  and  _276
REMARK  114  A    between atoms: _276  and  _277
REMARK  115  A    between atoms: _276  and  _279
REMARK  116  A    between atoms: _279  and  _280
REMARK  117  A    between atoms: _290  and  _292
REMARK  118  A    between atoms: _292  and  _293
REMARK  119  A    between atoms: _292  and  _295
REMARK  120  A    between atoms: _295  and  _296
REMARK  121  A    between atoms: _299  and  _301
REMARK  122  A    between atoms: _301  and  _302
REMARK  123  A    between atoms: _301  and  _304
REMARK  124  A    between atoms: _304  and  _305
REMARK  125  A    between atoms: _305  and  _306
REMARK  126  A    between atoms: _306  and  _307
REMARK  127  A    between atoms: _307  and  _308
REMARK  128  A    between atoms: _312  and  _314
REMARK  129  A    between atoms: _314  and  _315
REMARK  130  A    between atoms: _314  and  _317
REMARK  131  A    between atoms: _317  and  _318
REMARK  132  A    between atoms: _318  and  _319
REMARK  133  A    between atoms: _319  and  _320
REMARK  134  A    between atoms: _320  and  ZN_473
REMARK  135  A    between atoms: _322  and  _324
REMARK  136  A    between atoms: _324  and  _325
REMARK  137  A    between atoms: _327  and  _329
REMARK  138  A    between atoms: _329  and  _330
REMARK  139  A    between atoms: _329  and  _332
REMARK  140  A    between atoms: _332  and  _333
REMARK  141  A    between atoms: _336  and  _338
REMARK  142  A    between atoms: _338  and  _339
REMARK  143  A    between atoms: _338  and  _341
REMARK  144  A    between atoms: _344  and  _346
REMARK  145  A    between atoms: _346  and  _347
REMARK  146  A    between atoms: _346  and  _349
REMARK  147  A    between atoms: _349  and  _350
REMARK  148  A    between atoms: _350  and  _351
REMARK  149  A    between atoms: _354  and  _356
REMARK  150  A    between atoms: _356  and  _357
REMARK  151  A    between atoms: _356  and  _359
REMARK  152  A    between atoms: _359  and  _360
REMARK  153  A    between atoms: _360  and  _361
REMARK  154  A    between atoms: _363  and  _365
REMARK  155  A    between atoms: _365  and  _366
REMARK  156  A    between atoms: _365  and  _368
REMARK  157  A    between atoms: _368  and  _369
REMARK  158  A    between atoms: _369  and  _370
REMARK  159  A    between atoms: _373  and  _375
REMARK  160  A    between atoms: _375  and  _376
REMARK  161  A    between atoms: _375  and  _378
REMARK  162  A    between atoms: _378  and  _379
REMARK  163  A    between atoms: _384  and  _386
REMARK  164  A    between atoms: _386  and  _387
REMARK  165  A    between atoms: _386  and  _389
REMARK  166  A    between atoms: _389  and  _390
REMARK  167  A    between atoms: _396  and  _398
REMARK  168  A    between atoms: _398  and  _399
REMARK  169  A    between atoms: _398  and  _401
REMARK  170  A    between atoms: _401  and  _402
REMARK  171  A    between atoms: _407  and  _408
REMARK  172  A    between atoms: _410  and  _412
REMARK  173  A    between atoms: _412  and  _413
REMARK  174  A    between atoms: _412  and  _415
REMARK  175  A    between atoms: _415  and  _416
REMARK  176  A    between atoms: _421  and  _422
REMARK  177  A    between atoms: _424  and  _426
REMARK  178  A    between atoms: _426  and  _427
REMARK  179  A    between atoms: _426  and  _429
REMARK  180  A    between atoms: _430  and  _431
REMARK  181  A    between atoms: _431  and  _432
REMARK  182  A    between atoms: _441  and  _443
REMARK  183  A    between atoms: _443  and  _444
REMARK  184  A    between atoms: _443  and  _446
REMARK  185  A    between atoms: _446  and  _447
REMARK  186  A    between atoms: _447  and  _448
REMARK  187  A    between atoms: _450  and  _452
REMARK  188  A    between atoms: _452  and  _453
REMARK  189  A    between atoms: _452  and  _455
REMARK  190  A    between atoms: _455  and  _456
REMARK  191  A    between atoms: _456  and  _457
REMARK  192  A    between atoms: _462  and  _464
REMARK  193  A    between atoms: _464  and  _465
REMARK  194  A    between atoms: _464  and  _467
REMARK  195  A    between atoms: _467  and  _468
REMARK                            x       y       z     vdW  Elec       q    Type
REMARK                         _______ _______ _______ _____ _____    ______ ____
ROOT
ATOM      1  O   HOH     1      16.042  11.840  26.185  0.00  0.00    +0.000 OA
ENDROOT
TORSDOF 0
