REMARK  Name = ../refined-set-2016/4mc2/4mc2_pocket.pdb
REMARK  234 active torsions:
REMARK  status: ('A' for Active; 'I' for Inactive)
REMARK    1  A    between atoms: _1  and  _3
REMARK    2  A    between atoms: _3  and  _4
REMARK    3  A    between atoms: _3  and  _6
REMARK    4  A    between atoms: _6  and  _7
REMARK    5  A    between atoms: _7  and  _8
REMARK    6  A    between atoms: _8  and  _9
REMARK    7  A    between atoms: _18  and  _20
REMARK    8  A    between atoms: _20  and  _21
REMARK    9  A    between atoms: _20  and  _23
REMARK   10  A    between atoms: _23  and  _24
REMARK   11  A    between atoms: _27  and  _29
REMARK   12  A    between atoms: _29  and  _30
REMARK   13  A    between atoms: _29  and  _32
REMARK   14  A    between atoms: _32  and  _33
REMARK   15  A    between atoms: _36  and  _38
REMARK   16  A    between atoms: _38  and  _39
REMARK   17  A    between atoms: _38  and  _41
REMARK   18  A    between atoms: _41  and  _42
REMARK   19  A    between atoms: _45  and  _47
REMARK   20  A    between atoms: _47  and  _48
REMARK   21  A    between atoms: _47  and  _50
REMARK   22  A    between atoms: _50  and  _51
REMARK   23  A    between atoms: _54  and  _56
REMARK   24  A    between atoms: _56  and  _57
REMARK   25  A    between atoms: _59  and  _61
REMARK   26  A    between atoms: _61  and  _62
REMARK   27  A    between atoms: _65  and  _67
REMARK   28  A    between atoms: _67  and  _68
REMARK   29  A    between atoms: _67  and  _70
REMARK   30  A    between atoms: _70  and  _71
REMARK   31  A    between atoms: _74  and  _76
REMARK   32  A    between atoms: _76  and  _77
REMARK   33  A    between atoms: _76  and  _79
REMARK   34  A    between atoms: _79  and  _80
REMARK   35  A    between atoms: _83  and  _85
REMARK   36  A    between atoms: _85  and  _86
REMARK   37  A    between atoms: _85  and  _88
REMARK   38  A    between atoms: _88  and  _89
REMARK   39  A    between atoms: _92  and  _94
REMARK   40  A    between atoms: _94  and  _95
REMARK   41  A    between atoms: _94  and  _97
REMARK   42  A    between atoms: _100  and  _102
REMARK   43  A    between atoms: _102  and  _103
REMARK   44  A    between atoms: _102  and  _105
REMARK   45  A    between atoms: _105  and  _106
REMARK   46  A    between atoms: _106  and  _107
REMARK   47  A    between atoms: _107  and  _108
REMARK   48  A    between atoms: _108  and  _109
REMARK   49  A    between atoms: _113  and  _115
REMARK   50  A    between atoms: _115  and  _116
REMARK   51  A    between atoms: _115  and  _118
REMARK   52  A    between atoms: _118  and  _119
REMARK   53  A    between atoms: _119  and  _120
REMARK   54  A    between atoms: _122  and  _124
REMARK   55  A    between atoms: _124  and  _125
REMARK   56  A    between atoms: _124  and  _127
REMARK   57  A    between atoms: _127  and  _128
REMARK   58  A    between atoms: _131  and  _133
REMARK   59  A    between atoms: _133  and  _134
REMARK   60  A    between atoms: _136  and  _138
REMARK   61  A    between atoms: _138  and  _139
REMARK   62  A    between atoms: _141  and  _143
REMARK   63  A    between atoms: _143  and  _144
REMARK   64  A    between atoms: _143  and  _146
REMARK   65  A    between atoms: _146  and  _147
REMARK   66  A    between atoms: _150  and  _152
REMARK   67  A    between atoms: _152  and  _153
REMARK   68  A    between atoms: _155  and  _157
REMARK   69  A    between atoms: _157  and  _158
REMARK   70  A    between atoms: _160  and  _162
REMARK   71  A    between atoms: _162  and  _163
REMARK   72  A    between atoms: _162  and  _165
REMARK   73  A    between atoms: _165  and  _166
REMARK   74  A    between atoms: _172  and  _174
REMARK   75  A    between atoms: _174  and  _175
REMARK   76  A    between atoms: _174  and  _177
REMARK   77  A    between atoms: _177  and  _178
REMARK   78  A    between atoms: _181  and  _183
REMARK   79  A    between atoms: _183  and  _184
REMARK   80  A    between atoms: _183  and  _186
REMARK   81  A    between atoms: _186  and  _187
REMARK   82  A    between atoms: _191  and  _192
REMARK   83  A    between atoms: _197  and  _199
REMARK   84  A    between atoms: _199  and  _200
REMARK   85  A    between atoms: _199  and  _202
REMARK   86  A    between atoms: _202  and  _203
REMARK   87  A    between atoms: _207  and  _208
REMARK   88  A    between atoms: _213  and  _215
REMARK   89  A    between atoms: _215  and  _216
REMARK   90  A    between atoms: _215  and  _218
REMARK   91  A    between atoms: _221  and  _223
REMARK   92  A    between atoms: _223  and  _224
REMARK   93  A    between atoms: _223  and  _226
REMARK   94  A    between atoms: _226  and  _227
REMARK   95  A    between atoms: _232  and  _234
REMARK   96  A    between atoms: _234  and  _235
REMARK   97  A    between atoms: _234  and  _237
REMARK   98  A    between atoms: _237  and  _238
REMARK   99  A    between atoms: _241  and  _243
REMARK  100  A    between atoms: _243  and  _244
REMARK  101  A    between atoms: _243  and  _246
REMARK  102  A    between atoms: _246  and  _247
REMARK  103  A    between atoms: _250  and  _252
REMARK  104  A    between atoms: _252  and  _253
REMARK  105  A    between atoms: _255  and  _257
REMARK  106  A    between atoms: _257  and  _258
REMARK  107  A    between atoms: _257  and  _260
REMARK  108  A    between atoms: _260  and  _261
REMARK  109  A    between atoms: _261  and  _262
REMARK  110  A    between atoms: _262  and  _263
REMARK  111  A    between atoms: _272  and  _274
REMARK  112  A    between atoms: _274  and  _275
REMARK  113  A    between atoms: _274  and  _277
REMARK  114  A    between atoms: _277  and  _278
REMARK  115  A    between atoms: _283  and  _285
REMARK  116  A    between atoms: _285  and  _286
REMARK  117  A    between atoms: _285  and  _288
REMARK  118  A    between atoms: _288  and  _289
REMARK  119  A    between atoms: _289  and  _290
REMARK  120  A    between atoms: _290  and  _291
REMARK  121  A    between atoms: _300  and  _302
REMARK  122  A    between atoms: _302  and  _303
REMARK  123  A    between atoms: _302  and  _305
REMARK  124  A    between atoms: _305  and  _306
REMARK  125  A    between atoms: _309  and  _311
REMARK  126  A    between atoms: _311  and  _312
REMARK  127  A    between atoms: _311  and  _314
REMARK  128  A    between atoms: _314  and  _315
REMARK  129  A    between atoms: _318  and  _320
REMARK  130  A    between atoms: _320  and  _321
REMARK  131  A    between atoms: _320  and  _323
REMARK  132  A    between atoms: _323  and  _324
REMARK  133  A    between atoms: _327  and  _329
REMARK  134  A    between atoms: _329  and  _330
REMARK  135  A    between atoms: _329  and  _332
REMARK  136  A    between atoms: _332  and  _333
REMARK  137  A    between atoms: _336  and  _338
REMARK  138  A    between atoms: _338  and  _339
REMARK  139  A    between atoms: _341  and  _343
REMARK  140  A    between atoms: _343  and  _344
REMARK  141  A    between atoms: _347  and  _349
REMARK  142  A    between atoms: _349  and  _350
REMARK  143  A    between atoms: _349  and  _352
REMARK  144  A    between atoms: _352  and  _353
REMARK  145  A    between atoms: _356  and  _358
REMARK  146  A    between atoms: _358  and  _359
REMARK  147  A    between atoms: _358  and  _361
REMARK  148  A    between atoms: _361  and  _362
REMARK  149  A    between atoms: _365  and  _367
REMARK  150  A    between atoms: _367  and  _368
REMARK  151  A    between atoms: _367  and  _370
REMARK  152  A    between atoms: _370  and  _371
REMARK  153  A    between atoms: _374  and  _376
REMARK  154  A    between atoms: _376  and  _377
REMARK  155  A    between atoms: _376  and  _379
REMARK  156  A    between atoms: _382  and  _384
REMARK  157  A    between atoms: _384  and  _385
REMARK  158  A    between atoms: _384  and  _387
REMARK  159  A    between atoms: _387  and  _388
REMARK  160  A    between atoms: _391  and  _393
REMARK  161  A    between atoms: _393  and  _394
REMARK  162  A    between atoms: _393  and  _396
REMARK  163  A    between atoms: _396  and  _397
REMARK  164  A    between atoms: _397  and  _398
REMARK  165  A    between atoms: _398  and  _399
REMARK  166  A    between atoms: _399  and  _400
REMARK  167  A    between atoms: _404  and  _406
REMARK  168  A    between atoms: _406  and  _407
REMARK  169  A    between atoms: _406  and  _409
REMARK  170  A    between atoms: _409  and  _410
REMARK  171  A    between atoms: _410  and  _411
REMARK  172  A    between atoms: _413  and  _415
REMARK  173  A    between atoms: _415  and  _416
REMARK  174  A    between atoms: _415  and  _418
REMARK  175  A    between atoms: _418  and  _419
REMARK  176  A    between atoms: _422  and  _424
REMARK  177  A    between atoms: _424  and  _425
REMARK  178  A    between atoms: _427  and  _429
REMARK  179  A    between atoms: _429  and  _430
REMARK  180  A    between atoms: _432  and  _434
REMARK  181  A    between atoms: _434  and  _435
REMARK  182  A    between atoms: _434  and  _437
REMARK  183  A    between atoms: _437  and  _438
REMARK  184  A    between atoms: _441  and  _443
REMARK  185  A    between atoms: _443  and  _444
REMARK  186  A    between atoms: _446  and  _448
REMARK  187  A    between atoms: _448  and  _449
REMARK  188  A    between atoms: _451  and  _453
REMARK  189  A    between atoms: _453  and  _454
REMARK  190  A    between atoms: _453  and  _456
REMARK  191  A    between atoms: _456  and  _457
REMARK  192  A    between atoms: _463  and  _465
REMARK  193  A    between atoms: _465  and  _466
REMARK  194  A    between atoms: _465  and  _468
REMARK  195  A    between atoms: _468  and  _469
REMARK  196  A    between atoms: _472  and  _474
REMARK  197  A    between atoms: _474  and  _475
REMARK  198  A    between atoms: _474  and  _477
REMARK  199  A    between atoms: _480  and  _482
REMARK  200  A    between atoms: _482  and  _483
REMARK  201  A    between atoms: _482  and  _485
REMARK  202  A    between atoms: _485  and  _486
REMARK  203  A    between atoms: _489  and  _491
REMARK  204  A    between atoms: _491  and  _492
REMARK  205  A    between atoms: _491  and  _494
REMARK  206  A    between atoms: _494  and  _495
REMARK  207  A    between atoms: _499  and  _500
REMARK  208  A    between atoms: _505  and  _507
REMARK  209  A    between atoms: _507  and  _508
REMARK  210  A    between atoms: _507  and  _510
REMARK  211  A    between atoms: _513  and  _515
REMARK  212  A    between atoms: _515  and  _516
REMARK  213  A    between atoms: _515  and  _518
REMARK  214  A    between atoms: _518  and  _519
REMARK  215  A    between atoms: _524  and  _526
REMARK  216  A    between atoms: _526  and  _527
REMARK  217  A    between atoms: _526  and  _529
REMARK  218  A    between atoms: _529  and  _530
REMARK  219  A    between atoms: _533  and  _535
REMARK  220  A    between atoms: _535  and  _536
REMARK  221  A    between atoms: _535  and  _538
REMARK  222  A    between atoms: _538  and  _539
REMARK  223  A    between atoms: _542  and  _544
REMARK  224  A    between atoms: _544  and  _545
REMARK  225  A    between atoms: _547  and  _549
REMARK  226  A    between atoms: _549  and  _550
REMARK  227  A    between atoms: _549  and  _552
REMARK  228  A    between atoms: _552  and  _553
REMARK  229  A    between atoms: _553  and  _554
REMARK  230  A    between atoms: _554  and  _555
REMARK  231  A    between atoms: _564  and  _566
REMARK  232  A    between atoms: _566  and  _567
REMARK  233  A    between atoms: _566  and  _569
REMARK  234  A    between atoms: _569  and  _570
REMARK                            x       y       z     vdW  Elec       q    Type
REMARK                         _______ _______ _______ _____ _____    ______ ____
ROOT
ATOM      1  NE  ARG A   1      22.547  20.874   7.922  0.00  0.00    -0.265 N 
ATOM      2  CZ  ARG A   1      21.770  20.136   8.711  0.00  0.00    +0.342 C 
ATOM      3  NH2 ARG A   1      21.672  20.414  10.009  0.00  0.00    -0.292 N 
ATOM      4 HH21 ARG A   1      21.063  19.834  10.621  0.00  0.00    +0.255 HD
ATOM      5 HH22 ARG A   1      22.204  21.212  10.412  0.00  0.00    +0.255 HD
ATOM      6  NH1 ARG A   1      21.101  19.101   8.214  0.00  0.00    -0.292 N 
ATOM      7 HH11 ARG A   1      20.495  18.527   8.834  0.00  0.00    +0.255 HD
ATOM      8 HH12 ARG A   1      21.183  18.865   7.205  0.00  0.00    +0.255 HD
ATOM      9  HE  ARG A   1      22.597  20.616   6.916  0.00  0.00    +0.259 HD
ENDROOT
BRANCH   1  10
ATOM     10  CD  ARG A   1      23.338  22.024   8.370  0.00  0.00    +0.174 C 
BRANCH  10  11
ATOM     11  CG  ARG A   1      24.038  22.678   7.188  0.00  0.00    +0.045 C 
BRANCH  11  12
ATOM     12  CB  ARG A   1      24.741  23.948   7.573  0.00  0.00    +0.029 C 
BRANCH  12  13
ATOM     13  CA  ARG A   1      25.358  24.679   6.371  0.00  0.00    +0.133 C 
BRANCH  13  14
ATOM     14  N   ARG A   1      26.581  23.994   5.906  0.00  0.00    -0.239 NA
ATOM     15  H   ARG A   1      26.886  23.112   6.365  0.00  0.00    +0.142 HD
ENDBRANCH  13  14
BRANCH  13  16
ATOM     16  C   ARG A   1      25.694  26.101   6.808  0.00  0.00    +0.224 C 
ATOM     17  O   ARG A   1      26.681  26.292   7.532  0.00  0.00    -0.287 OA
ENDBRANCH  13  16
ENDBRANCH  12  13
ENDBRANCH  11  12
ENDBRANCH  10  11
ENDBRANCH   1  10
TORSDOF 6
REMARK  Name = ../refined-set-2016/4mc2/4mc2_pocket.pdb
REMARK  234 active torsions:
REMARK  status: ('A' for Active; 'I' for Inactive)
REMARK    1  A    between atoms: _1  and  _3
REMARK    2  A    between atoms: _3  and  _4
REMARK    3  A    between atoms: _3  and  _6
REMARK    4  A    between atoms: _6  and  _7
REMARK    5  A    between atoms: _7  and  _8
REMARK    6  A    between atoms: _8  and  _9
REMARK    7  A    between atoms: _18  and  _20
REMARK    8  A    between atoms: _20  and  _21
REMARK    9  A    between atoms: _20  and  _23
REMARK   10  A    between atoms: _23  and  _24
REMARK   11  A    between atoms: _27  and  _29
REMARK   12  A    between atoms: _29  and  _30
REMARK   13  A    between atoms: _29  and  _32
REMARK   14  A    between atoms: _32  and  _33
REMARK   15  A    between atoms: _36  and  _38
REMARK   16  A    between atoms: _38  and  _39
REMARK   17  A    between atoms: _38  and  _41
REMARK   18  A    between atoms: _41  and  _42
REMARK   19  A    between atoms: _45  and  _47
REMARK   20  A    between atoms: _47  and  _48
REMARK   21  A    between atoms: _47  and  _50
REMARK   22  A    between atoms: _50  and  _51
REMARK   23  A    between atoms: _54  and  _56
REMARK   24  A    between atoms: _56  and  _57
REMARK   25  A    between atoms: _59  and  _61
REMARK   26  A    between atoms: _61  and  _62
REMARK   27  A    between atoms: _65  and  _67
REMARK   28  A    between atoms: _67  and  _68
REMARK   29  A    between atoms: _67  and  _70
REMARK   30  A    between atoms: _70  and  _71
REMARK   31  A    between atoms: _74  and  _76
REMARK   32  A    between atoms: _76  and  _77
REMARK   33  A    between atoms: _76  and  _79
REMARK   34  A    between atoms: _79  and  _80
REMARK   35  A    between atoms: _83  and  _85
REMARK   36  A    between atoms: _85  and  _86
REMARK   37  A    between atoms: _85  and  _88
REMARK   38  A    between atoms: _88  and  _89
REMARK   39  A    between atoms: _92  and  _94
REMARK   40  A    between atoms: _94  and  _95
REMARK   41  A    between atoms: _94  and  _97
REMARK   42  A    between atoms: _100  and  _102
REMARK   43  A    between atoms: _102  and  _103
REMARK   44  A    between atoms: _102  and  _105
REMARK   45  A    between atoms: _105  and  _106
REMARK   46  A    between atoms: _106  and  _107
REMARK   47  A    between atoms: _107  and  _108
REMARK   48  A    between atoms: _108  and  _109
REMARK   49  A    between atoms: _113  and  _115
REMARK   50  A    between atoms: _115  and  _116
REMARK   51  A    between atoms: _115  and  _118
REMARK   52  A    between atoms: _118  and  _119
REMARK   53  A    between atoms: _119  and  _120
REMARK   54  A    between atoms: _122  and  _124
REMARK   55  A    between atoms: _124  and  _125
REMARK   56  A    between atoms: _124  and  _127
REMARK   57  A    between atoms: _127  and  _128
REMARK   58  A    between atoms: _131  and  _133
REMARK   59  A    between atoms: _133  and  _134
REMARK   60  A    between atoms: _136  and  _138
REMARK   61  A    between atoms: _138  and  _139
REMARK   62  A    between atoms: _141  and  _143
REMARK   63  A    between atoms: _143  and  _144
REMARK   64  A    between atoms: _143  and  _146
REMARK   65  A    between atoms: _146  and  _147
REMARK   66  A    between atoms: _150  and  _152
REMARK   67  A    between atoms: _152  and  _153
REMARK   68  A    between atoms: _155  and  _157
REMARK   69  A    between atoms: _157  and  _158
REMARK   70  A    between atoms: _160  and  _162
REMARK   71  A    between atoms: _162  and  _163
REMARK   72  A    between atoms: _162  and  _165
REMARK   73  A    between atoms: _165  and  _166
REMARK   74  A    between atoms: _172  and  _174
REMARK   75  A    between atoms: _174  and  _175
REMARK   76  A    between atoms: _174  and  _177
REMARK   77  A    between atoms: _177  and  _178
REMARK   78  A    between atoms: _181  and  _183
REMARK   79  A    between atoms: _183  and  _184
REMARK   80  A    between atoms: _183  and  _186
REMARK   81  A    between atoms: _186  and  _187
REMARK   82  A    between atoms: _191  and  _192
REMARK   83  A    between atoms: _197  and  _199
REMARK   84  A    between atoms: _199  and  _200
REMARK   85  A    between atoms: _199  and  _202
REMARK   86  A    between atoms: _202  and  _203
REMARK   87  A    between atoms: _207  and  _208
REMARK   88  A    between atoms: _213  and  _215
REMARK   89  A    between atoms: _215  and  _216
REMARK   90  A    between atoms: _215  and  _218
REMARK   91  A    between atoms: _221  and  _223
REMARK   92  A    between atoms: _223  and  _224
REMARK   93  A    between atoms: _223  and  _226
REMARK   94  A    between atoms: _226  and  _227
REMARK   95  A    between atoms: _232  and  _234
REMARK   96  A    between atoms: _234  and  _235
REMARK   97  A    between atoms: _234  and  _237
REMARK   98  A    between atoms: _237  and  _238
REMARK   99  A    between atoms: _241  and  _243
REMARK  100  A    between atoms: _243  and  _244
REMARK  101  A    between atoms: _243  and  _246
REMARK  102  A    between atoms: _246  and  _247
REMARK  103  A    between atoms: _250  and  _252
REMARK  104  A    between atoms: _252  and  _253
REMARK  105  A    between atoms: _255  and  _257
REMARK  106  A    between atoms: _257  and  _258
REMARK  107  A    between atoms: _257  and  _260
REMARK  108  A    between atoms: _260  and  _261
REMARK  109  A    between atoms: _261  and  _262
REMARK  110  A    between atoms: _262  and  _263
REMARK  111  A    between atoms: _272  and  _274
REMARK  112  A    between atoms: _274  and  _275
REMARK  113  A    between atoms: _274  and  _277
REMARK  114  A    between atoms: _277  and  _278
REMARK  115  A    between atoms: _283  and  _285
REMARK  116  A    between atoms: _285  and  _286
REMARK  117  A    between atoms: _285  and  _288
REMARK  118  A    between atoms: _288  and  _289
REMARK  119  A    between atoms: _289  and  _290
REMARK  120  A    between atoms: _290  and  _291
REMARK  121  A    between atoms: _300  and  _302
REMARK  122  A    between atoms: _302  and  _303
REMARK  123  A    between atoms: _302  and  _305
REMARK  124  A    between atoms: _305  and  _306
REMARK  125  A    between atoms: _309  and  _311
REMARK  126  A    between atoms: _311  and  _312
REMARK  127  A    between atoms: _311  and  _314
REMARK  128  A    between atoms: _314  and  _315
REMARK  129  A    between atoms: _318  and  _320
REMARK  130  A    between atoms: _320  and  _321
REMARK  131  A    between atoms: _320  and  _323
REMARK  132  A    between atoms: _323  and  _324
REMARK  133  A    between atoms: _327  and  _329
REMARK  134  A    between atoms: _329  and  _330
REMARK  135  A    between atoms: _329  and  _332
REMARK  136  A    between atoms: _332  and  _333
REMARK  137  A    between atoms: _336  and  _338
REMARK  138  A    between atoms: _338  and  _339
REMARK  139  A    between atoms: _341  and  _343
REMARK  140  A    between atoms: _343  and  _344
REMARK  141  A    between atoms: _347  and  _349
REMARK  142  A    between atoms: _349  and  _350
REMARK  143  A    between atoms: _349  and  _352
REMARK  144  A    between atoms: _352  and  _353
REMARK  145  A    between atoms: _356  and  _358
REMARK  146  A    between atoms: _358  and  _359
REMARK  147  A    between atoms: _358  and  _361
REMARK  148  A    between atoms: _361  and  _362
REMARK  149  A    between atoms: _365  and  _367
REMARK  150  A    between atoms: _367  and  _368
REMARK  151  A    between atoms: _367  and  _370
REMARK  152  A    between atoms: _370  and  _371
REMARK  153  A    between atoms: _374  and  _376
REMARK  154  A    between atoms: _376  and  _377
REMARK  155  A    between atoms: _376  and  _379
REMARK  156  A    between atoms: _382  and  _384
REMARK  157  A    between atoms: _384  and  _385
REMARK  158  A    between atoms: _384  and  _387
REMARK  159  A    between atoms: _387  and  _388
REMARK  160  A    between atoms: _391  and  _393
REMARK  161  A    between atoms: _393  and  _394
REMARK  162  A    between atoms: _393  and  _396
REMARK  163  A    between atoms: _396  and  _397
REMARK  164  A    between atoms: _397  and  _398
REMARK  165  A    between atoms: _398  and  _399
REMARK  166  A    between atoms: _399  and  _400
REMARK  167  A    between atoms: _404  and  _406
REMARK  168  A    between atoms: _406  and  _407
REMARK  169  A    between atoms: _406  and  _409
REMARK  170  A    between atoms: _409  and  _410
REMARK  171  A    between atoms: _410  and  _411
REMARK  172  A    between atoms: _413  and  _415
REMARK  173  A    between atoms: _415  and  _416
REMARK  174  A    between atoms: _415  and  _418
REMARK  175  A    between atoms: _418  and  _419
REMARK  176  A    between atoms: _422  and  _424
REMARK  177  A    between atoms: _424  and  _425
REMARK  178  A    between atoms: _427  and  _429
REMARK  179  A    between atoms: _429  and  _430
REMARK  180  A    between atoms: _432  and  _434
REMARK  181  A    between atoms: _434  and  _435
REMARK  182  A    between atoms: _434  and  _437
REMARK  183  A    between atoms: _437  and  _438
REMARK  184  A    between atoms: _441  and  _443
REMARK  185  A    between atoms: _443  and  _444
REMARK  186  A    between atoms: _446  and  _448
REMARK  187  A    between atoms: _448  and  _449
REMARK  188  A    between atoms: _451  and  _453
REMARK  189  A    between atoms: _453  and  _454
REMARK  190  A    between atoms: _453  and  _456
REMARK  191  A    between atoms: _456  and  _457
REMARK  192  A    between atoms: _463  and  _465
REMARK  193  A    between atoms: _465  and  _466
REMARK  194  A    between atoms: _465  and  _468
REMARK  195  A    between atoms: _468  and  _469
REMARK  196  A    between atoms: _472  and  _474
REMARK  197  A    between atoms: _474  and  _475
REMARK  198  A    between atoms: _474  and  _477
REMARK  199  A    between atoms: _480  and  _482
REMARK  200  A    between atoms: _482  and  _483
REMARK  201  A    between atoms: _482  and  _485
REMARK  202  A    between atoms: _485  and  _486
REMARK  203  A    between atoms: _489  and  _491
REMARK  204  A    between atoms: _491  and  _492
REMARK  205  A    between atoms: _491  and  _494
REMARK  206  A    between atoms: _494  and  _495
REMARK  207  A    between atoms: _499  and  _500
REMARK  208  A    between atoms: _505  and  _507
REMARK  209  A    between atoms: _507  and  _508
REMARK  210  A    between atoms: _507  and  _510
REMARK  211  A    between atoms: _513  and  _515
REMARK  212  A    between atoms: _515  and  _516
REMARK  213  A    between atoms: _515  and  _518
REMARK  214  A    between atoms: _518  and  _519
REMARK  215  A    between atoms: _524  and  _526
REMARK  216  A    between atoms: _526  and  _527
REMARK  217  A    between atoms: _526  and  _529
REMARK  218  A    between atoms: _529  and  _530
REMARK  219  A    between atoms: _533  and  _535
REMARK  220  A    between atoms: _535  and  _536
REMARK  221  A    between atoms: _535  and  _538
REMARK  222  A    between atoms: _538  and  _539
REMARK  223  A    between atoms: _542  and  _544
REMARK  224  A    between atoms: _544  and  _545
REMARK  225  A    between atoms: _547  and  _549
REMARK  226  A    between atoms: _549  and  _550
REMARK  227  A    between atoms: _549  and  _552
REMARK  228  A    between atoms: _552  and  _553
REMARK  229  A    between atoms: _553  and  _554
REMARK  230  A    between atoms: _554  and  _555
REMARK  231  A    between atoms: _564  and  _566
REMARK  232  A    between atoms: _566  and  _567
REMARK  233  A    between atoms: _566  and  _569
REMARK  234  A    between atoms: _569  and  _570
REMARK                            x       y       z     vdW  Elec       q    Type
REMARK                         _______ _______ _______ _____ _____    ______ ____
ROOT
ATOM      1  C   GLY A   5      12.386  28.175   3.312  0.00  0.00    +0.243 C 
ATOM      2  N   ALA A   6      12.701  28.843   4.437  0.00  0.00    -0.297 N 
ATOM      3  H   ALA A   6      13.638  29.289   4.509  0.00  0.00    +0.150 HD
ATOM      4  O   GLY A   5      11.305  27.593   3.157  0.00  0.00    -0.273 OA
ENDROOT
BRANCH   2   5
ATOM      5  CA  ALA A   6      11.776  28.966   5.562  0.00  0.00    +0.149 C 
ATOM      6  CB  ALA A   6      12.553  28.811   6.857  0.00  0.00    +0.031 C 
BRANCH   5   7
ATOM      7  C   ALA A   6      11.068  30.331   5.544  0.00  0.00    +0.241 C 
ATOM      8  O   ALA A   6      11.753  31.348   5.595  0.00  0.00    -0.273 OA
ATOM      9  N   ASP A   7       9.721  30.366   5.502  0.00  0.00    -0.297 N 
ATOM     10  H   ASP A   7       9.180  29.479   5.452  0.00  0.00    +0.150 HD
BRANCH   9  11
ATOM     11  CA  ASP A   7       9.019  31.648   5.527  0.00  0.00    +0.160 C 
BRANCH  11  12
ATOM     12  C   ASP A   7       9.183  32.344   6.885  0.00  0.00    +0.241 C 
ATOM     13  N   ASP A   8       9.219  31.528   7.948  0.00  0.00    -0.297 N 
ATOM     14  H   ASP A   8       9.256  30.504   7.772  0.00  0.00    +0.150 HD
ATOM     15  O   ASP A   7       9.236  33.576   6.962  0.00  0.00    -0.273 OA
BRANCH  13  16
ATOM     16  CA  ASP A   8       9.210  31.980   9.331  0.00  0.00    +0.160 C 
BRANCH  16  17
ATOM     17  C   ASP A   8      10.434  31.485  10.095  0.00  0.00    +0.241 C 
ATOM     18  N   THR A   9      10.704  32.138  11.234  0.00  0.00    -0.295 N 
ATOM     19  H   THR A   9      10.083  32.927  11.503  0.00  0.00    +0.150 HD
ATOM     20  O   ASP A   8      11.126  30.563   9.663  0.00  0.00    -0.273 OA
BRANCH  18  21
ATOM     21  CA  THR A   9      11.816  31.809  12.119  0.00  0.00    +0.176 C 
BRANCH  21  22
ATOM     22  C   THR A   9      11.261  30.855  13.188  0.00  0.00    +0.243 C 
ATOM     23  O   THR A   9      10.229  31.151  13.794  0.00  0.00    -0.273 OA
ATOM     24  N   VAL A  10      11.932  29.715  13.393  0.00  0.00    -0.298 N 
ATOM     25  H   VAL A  10      12.799  29.538  12.846  0.00  0.00    +0.150 HD
BRANCH  24  26
ATOM     26  CA  VAL A  10      11.487  28.705  14.364  0.00  0.00    +0.137 C 
BRANCH  26  27
ATOM     27  CB  VAL A  10      10.877  27.433  13.715  0.00  0.00    +0.026 C 
ATOM     28  CG2 VAL A  10      10.129  26.588  14.772  0.00  0.00    +0.002 C 
ATOM     29  CG1 VAL A  10       9.960  27.809  12.548  0.00  0.00    +0.002 C 
ENDBRANCH  26  27
BRANCH  26  30
ATOM     30  C   VAL A  10      12.670  28.331  15.238  0.00  0.00    +0.227 C 
ATOM     31  O   VAL A  10      13.735  27.949  14.722  0.00  0.00    -0.286 OA
ENDBRANCH  26  30
ENDBRANCH  24  26
ENDBRANCH  21  22
BRANCH  21  32
ATOM     32  CB  THR A   9      12.377  33.111  12.709  0.00  0.00    +0.137 C 
ATOM     33  CG2 THR A   9      13.407  32.862  13.822  0.00  0.00    +0.034 C 
BRANCH  32  34
ATOM     34  OG1 THR A   9      12.964  33.881  11.650  0.00  0.00    -0.382 OA
ATOM     35  HG1 THR A   9      12.273  34.089  10.972  0.00  0.00    +0.210 HD
ENDBRANCH  32  34
ENDBRANCH  21  32
ENDBRANCH  18  21
ENDBRANCH  16  17
BRANCH  16  36
ATOM     36  CB  ASP A   8       7.944  31.398  10.017  0.00  0.00    +0.143 C 
BRANCH  36  37
ATOM     37  CG  ASP A   8       6.647  31.634   9.256  0.00  0.00    +0.367 C 
ATOM     38  OD2 ASP A   8       5.864  30.674   9.112  0.00  0.00    -0.246 OA
ATOM     39  OD1 ASP A   8       6.443  32.766   8.769  0.00  0.00    -0.246 OA
ENDBRANCH  36  37
ENDBRANCH  16  36
ENDBRANCH  13  16
ENDBRANCH  11  12
BRANCH  11  40
ATOM     40  CB  ASP A   7       7.505  31.440   5.299  0.00  0.00    +0.143 C 
BRANCH  40  41
ATOM     41  CG  ASP A   7       7.145  30.704   4.028  0.00  0.00    +0.367 C 
ATOM     42  OD2 ASP A   7       6.207  29.884   4.072  0.00  0.00    -0.246 OA
ATOM     43  OD1 ASP A   7       7.727  31.029   2.964  0.00  0.00    -0.246 OA
ENDBRANCH  40  41
ENDBRANCH  11  40
ENDBRANCH   9  11
ENDBRANCH   5   7
ENDBRANCH   2   5
BRANCH   1  44
ATOM     44  CA  GLY A   5      13.433  28.130   2.211  0.00  0.00    +0.176 C 
BRANCH  44  46
ATOM     45  C   THR A   4      14.621  30.265   2.209  0.00  0.00    +0.243 C 
ATOM     46  N   GLY A   5      14.601  28.966   2.484  0.00  0.00    -0.295 N 
ATOM     47  H   GLY A   5      15.444  28.529   2.908  0.00  0.00    +0.150 HD
ATOM     48  O   THR A   4      13.676  30.869   1.693  0.00  0.00    -0.273 OA
BRANCH  45  49
ATOM     49  CA  THR A   4      15.908  31.038   2.562  0.00  0.00    +0.176 C 
BRANCH  49  52
ATOM     50  C   ASP A   3      16.354  30.195   4.823  0.00  0.00    +0.241 C 
ATOM     51  O   ASP A   3      15.239  30.524   5.218  0.00  0.00    -0.273 OA
ATOM     52  N   THR A   4      16.765  30.358   3.539  0.00  0.00    -0.295 N 
ATOM     53  H   THR A   4      17.695  29.998   3.246  0.00  0.00    +0.150 HD
BRANCH  50  54
ATOM     54  CA  ASP A   3      17.299  29.472   5.763  0.00  0.00    +0.160 C 
BRANCH  54  56
ATOM     55  C   LEU A   2      19.431  30.299   6.582  0.00  0.00    +0.241 C 
ATOM     56  N   ASP A   3      18.089  30.330   6.631  0.00  0.00    -0.297 N 
ATOM     57  H   ASP A   3      17.612  30.973   7.295  0.00  0.00    +0.150 HD
ATOM     58  O   LEU A   2      20.065  29.636   5.745  0.00  0.00    -0.273 OA
BRANCH  55  59
ATOM     59  CA  LEU A   2      20.147  31.038   7.694  0.00  0.00    +0.149 C 
BRANCH  59  62
ATOM     60  C   LEU A   1      19.965  29.309   9.466  0.00  0.00    +0.238 C 
ATOM     61  O   LEU A   1      18.769  29.551   9.672  0.00  0.00    -0.274 OA
ATOM     62  N   LEU A   2      20.715  29.994   8.567  0.00  0.00    -0.297 N 
ATOM     63  H   LEU A   2      21.729  29.775   8.491  0.00  0.00    +0.150 HD
BRANCH  60  64
ATOM     64  CA  LEU A   1      20.631  28.171  10.225  0.00  0.00    +0.145 C 
BRANCH  64  65
ATOM     65  N   LEU A   1      20.424  28.329  11.656  0.00  0.00    -0.238 NA
ATOM     66  H   LEU A   1      19.535  27.974  12.061  0.00  0.00    +0.142 HD
ENDBRANCH  64  65
BRANCH  64  67
ATOM     67  CB  LEU A   1      19.988  26.815   9.860  0.00  0.00    +0.026 C 
BRANCH  67  68
ATOM     68  CG  LEU A   1      20.124  26.266   8.459  0.00  0.00    +0.002 C 
ATOM     69  CD2 LEU A   1      19.325  24.983   8.331  0.00  0.00    +0.000 C 
ATOM     70  CD1 LEU A   1      21.555  25.930   8.150  0.00  0.00    +0.000 C 
ENDBRANCH  67  68
ENDBRANCH  64  67
ENDBRANCH  60  64
ENDBRANCH  59  62
BRANCH  59  71
ATOM     71  CB  LEU A   2      21.234  31.963   7.123  0.00  0.00    +0.029 C 
BRANCH  71  72
ATOM     72  CG  LEU A   2      22.089  32.718   8.143  0.00  0.00    +0.002 C 
ATOM     73  CD2 LEU A   2      21.236  33.561   9.095  0.00  0.00    +0.000 C 
ATOM     74  CD1 LEU A   2      23.093  33.606   7.430  0.00  0.00    +0.000 C 
ENDBRANCH  71  72
ENDBRANCH  59  71
ENDBRANCH  55  59
ENDBRANCH  54  56
BRANCH  54  75
ATOM     75  CB  ASP A   3      16.513  28.530   6.668  0.00  0.00    +0.143 C 
BRANCH  75  76
ATOM     76  CG  ASP A   3      15.840  27.381   5.966  0.00  0.00    +0.367 C 
ATOM     77  OD2 ASP A   3      15.413  26.450   6.656  0.00  0.00    -0.246 OA
ATOM     78  OD1 ASP A   3      15.807  27.383   4.710  0.00  0.00    -0.246 OA
ENDBRANCH  75  76
ENDBRANCH  54  75
ENDBRANCH  50  54
ENDBRANCH  49  52
BRANCH  49  79
ATOM     79  CB  THR A   4      16.697  31.369   1.301  0.00  0.00    +0.137 C 
ATOM     80  CG2 THR A   4      17.883  32.302   1.600  0.00  0.00    +0.034 C 
BRANCH  79  81
ATOM     81  OG1 THR A   4      17.169  30.142   0.726  0.00  0.00    -0.382 OA
ATOM     82  HG1 THR A   4      16.396  29.566   0.501  0.00  0.00    +0.210 HD
ENDBRANCH  79  81
ENDBRANCH  49  79
ENDBRANCH  45  49
ENDBRANCH  44  46
ENDBRANCH   1  44
TORSDOF 35
REMARK  Name = ../refined-set-2016/4mc2/4mc2_pocket.pdb
REMARK  234 active torsions:
REMARK  status: ('A' for Active; 'I' for Inactive)
REMARK    1  A    between atoms: _1  and  _3
REMARK    2  A    between atoms: _3  and  _4
REMARK    3  A    between atoms: _3  and  _6
REMARK    4  A    between atoms: _6  and  _7
REMARK    5  A    between atoms: _7  and  _8
REMARK    6  A    between atoms: _8  and  _9
REMARK    7  A    between atoms: _18  and  _20
REMARK    8  A    between atoms: _20  and  _21
REMARK    9  A    between atoms: _20  and  _23
REMARK   10  A    between atoms: _23  and  _24
REMARK   11  A    between atoms: _27  and  _29
REMARK   12  A    between atoms: _29  and  _30
REMARK   13  A    between atoms: _29  and  _32
REMARK   14  A    between atoms: _32  and  _33
REMARK   15  A    between atoms: _36  and  _38
REMARK   16  A    between atoms: _38  and  _39
REMARK   17  A    between atoms: _38  and  _41
REMARK   18  A    between atoms: _41  and  _42
REMARK   19  A    between atoms: _45  and  _47
REMARK   20  A    between atoms: _47  and  _48
REMARK   21  A    between atoms: _47  and  _50
REMARK   22  A    between atoms: _50  and  _51
REMARK   23  A    between atoms: _54  and  _56
REMARK   24  A    between atoms: _56  and  _57
REMARK   25  A    between atoms: _59  and  _61
REMARK   26  A    between atoms: _61  and  _62
REMARK   27  A    between atoms: _65  and  _67
REMARK   28  A    between atoms: _67  and  _68
REMARK   29  A    between atoms: _67  and  _70
REMARK   30  A    between atoms: _70  and  _71
REMARK   31  A    between atoms: _74  and  _76
REMARK   32  A    between atoms: _76  and  _77
REMARK   33  A    between atoms: _76  and  _79
REMARK   34  A    between atoms: _79  and  _80
REMARK   35  A    between atoms: _83  and  _85
REMARK   36  A    between atoms: _85  and  _86
REMARK   37  A    between atoms: _85  and  _88
REMARK   38  A    between atoms: _88  and  _89
REMARK   39  A    between atoms: _92  and  _94
REMARK   40  A    between atoms: _94  and  _95
REMARK   41  A    between atoms: _94  and  _97
REMARK   42  A    between atoms: _100  and  _102
REMARK   43  A    between atoms: _102  and  _103
REMARK   44  A    between atoms: _102  and  _105
REMARK   45  A    between atoms: _105  and  _106
REMARK   46  A    between atoms: _106  and  _107
REMARK   47  A    between atoms: _107  and  _108
REMARK   48  A    between atoms: _108  and  _109
REMARK   49  A    between atoms: _113  and  _115
REMARK   50  A    between atoms: _115  and  _116
REMARK   51  A    between atoms: _115  and  _118
REMARK   52  A    between atoms: _118  and  _119
REMARK   53  A    between atoms: _119  and  _120
REMARK   54  A    between atoms: _122  and  _124
REMARK   55  A    between atoms: _124  and  _125
REMARK   56  A    between atoms: _124  and  _127
REMARK   57  A    between atoms: _127  and  _128
REMARK   58  A    between atoms: _131  and  _133
REMARK   59  A    between atoms: _133  and  _134
REMARK   60  A    between atoms: _136  and  _138
REMARK   61  A    between atoms: _138  and  _139
REMARK   62  A    between atoms: _141  and  _143
REMARK   63  A    between atoms: _143  and  _144
REMARK   64  A    between atoms: _143  and  _146
REMARK   65  A    between atoms: _146  and  _147
REMARK   66  A    between atoms: _150  and  _152
REMARK   67  A    between atoms: _152  and  _153
REMARK   68  A    between atoms: _155  and  _157
REMARK   69  A    between atoms: _157  and  _158
REMARK   70  A    between atoms: _160  and  _162
REMARK   71  A    between atoms: _162  and  _163
REMARK   72  A    between atoms: _162  and  _165
REMARK   73  A    between atoms: _165  and  _166
REMARK   74  A    between atoms: _172  and  _174
REMARK   75  A    between atoms: _174  and  _175
REMARK   76  A    between atoms: _174  and  _177
REMARK   77  A    between atoms: _177  and  _178
REMARK   78  A    between atoms: _181  and  _183
REMARK   79  A    between atoms: _183  and  _184
REMARK   80  A    between atoms: _183  and  _186
REMARK   81  A    between atoms: _186  and  _187
REMARK   82  A    between atoms: _191  and  _192
REMARK   83  A    between atoms: _197  and  _199
REMARK   84  A    between atoms: _199  and  _200
REMARK   85  A    between atoms: _199  and  _202
REMARK   86  A    between atoms: _202  and  _203
REMARK   87  A    between atoms: _207  and  _208
REMARK   88  A    between atoms: _213  and  _215
REMARK   89  A    between atoms: _215  and  _216
REMARK   90  A    between atoms: _215  and  _218
REMARK   91  A    between atoms: _221  and  _223
REMARK   92  A    between atoms: _223  and  _224
REMARK   93  A    between atoms: _223  and  _226
REMARK   94  A    between atoms: _226  and  _227
REMARK   95  A    between atoms: _232  and  _234
REMARK   96  A    between atoms: _234  and  _235
REMARK   97  A    between atoms: _234  and  _237
REMARK   98  A    between atoms: _237  and  _238
REMARK   99  A    between atoms: _241  and  _243
REMARK  100  A    between atoms: _243  and  _244
REMARK  101  A    between atoms: _243  and  _246
REMARK  102  A    between atoms: _246  and  _247
REMARK  103  A    between atoms: _250  and  _252
REMARK  104  A    between atoms: _252  and  _253
REMARK  105  A    between atoms: _255  and  _257
REMARK  106  A    between atoms: _257  and  _258
REMARK  107  A    between atoms: _257  and  _260
REMARK  108  A    between atoms: _260  and  _261
REMARK  109  A    between atoms: _261  and  _262
REMARK  110  A    between atoms: _262  and  _263
REMARK  111  A    between atoms: _272  and  _274
REMARK  112  A    between atoms: _274  and  _275
REMARK  113  A    between atoms: _274  and  _277
REMARK  114  A    between atoms: _277  and  _278
REMARK  115  A    between atoms: _283  and  _285
REMARK  116  A    between atoms: _285  and  _286
REMARK  117  A    between atoms: _285  and  _288
REMARK  118  A    between atoms: _288  and  _289
REMARK  119  A    between atoms: _289  and  _290
REMARK  120  A    between atoms: _290  and  _291
REMARK  121  A    between atoms: _300  and  _302
REMARK  122  A    between atoms: _302  and  _303
REMARK  123  A    between atoms: _302  and  _305
REMARK  124  A    between atoms: _305  and  _306
REMARK  125  A    between atoms: _309  and  _311
REMARK  126  A    between atoms: _311  and  _312
REMARK  127  A    between atoms: _311  and  _314
REMARK  128  A    between atoms: _314  and  _315
REMARK  129  A    between atoms: _318  and  _320
REMARK  130  A    between atoms: _320  and  _321
REMARK  131  A    between atoms: _320  and  _323
REMARK  132  A    between atoms: _323  and  _324
REMARK  133  A    between atoms: _327  and  _329
REMARK  134  A    between atoms: _329  and  _330
REMARK  135  A    between atoms: _329  and  _332
REMARK  136  A    between atoms: _332  and  _333
REMARK  137  A    between atoms: _336  and  _338
REMARK  138  A    between atoms: _338  and  _339
REMARK  139  A    between atoms: _341  and  _343
REMARK  140  A    between atoms: _343  and  _344
REMARK  141  A    between atoms: _347  and  _349
REMARK  142  A    between atoms: _349  and  _350
REMARK  143  A    between atoms: _349  and  _352
REMARK  144  A    between atoms: _352  and  _353
REMARK  145  A    between atoms: _356  and  _358
REMARK  146  A    between atoms: _358  and  _359
REMARK  147  A    between atoms: _358  and  _361
REMARK  148  A    between atoms: _361  and  _362
REMARK  149  A    between atoms: _365  and  _367
REMARK  150  A    between atoms: _367  and  _368
REMARK  151  A    between atoms: _367  and  _370
REMARK  152  A    between atoms: _370  and  _371
REMARK  153  A    between atoms: _374  and  _376
REMARK  154  A    between atoms: _376  and  _377
REMARK  155  A    between atoms: _376  and  _379
REMARK  156  A    between atoms: _382  and  _384
REMARK  157  A    between atoms: _384  and  _385
REMARK  158  A    between atoms: _384  and  _387
REMARK  159  A    between atoms: _387  and  _388
REMARK  160  A    between atoms: _391  and  _393
REMARK  161  A    between atoms: _393  and  _394
REMARK  162  A    between atoms: _393  and  _396
REMARK  163  A    between atoms: _396  and  _397
REMARK  164  A    between atoms: _397  and  _398
REMARK  165  A    between atoms: _398  and  _399
REMARK  166  A    between atoms: _399  and  _400
REMARK  167  A    between atoms: _404  and  _406
REMARK  168  A    between atoms: _406  and  _407
REMARK  169  A    between atoms: _406  and  _409
REMARK  170  A    between atoms: _409  and  _410
REMARK  171  A    between atoms: _410  and  _411
REMARK  172  A    between atoms: _413  and  _415
REMARK  173  A    between atoms: _415  and  _416
REMARK  174  A    between atoms: _415  and  _418
REMARK  175  A    between atoms: _418  and  _419
REMARK  176  A    between atoms: _422  and  _424
REMARK  177  A    between atoms: _424  and  _425
REMARK  178  A    between atoms: _427  and  _429
REMARK  179  A    between atoms: _429  and  _430
REMARK  180  A    between atoms: _432  and  _434
REMARK  181  A    between atoms: _434  and  _435
REMARK  182  A    between atoms: _434  and  _437
REMARK  183  A    between atoms: _437  and  _438
REMARK  184  A    between atoms: _441  and  _443
REMARK  185  A    between atoms: _443  and  _444
REMARK  186  A    between atoms: _446  and  _448
REMARK  187  A    between atoms: _448  and  _449
REMARK  188  A    between atoms: _451  and  _453
REMARK  189  A    between atoms: _453  and  _454
REMARK  190  A    between atoms: _453  and  _456
REMARK  191  A    between atoms: _456  and  _457
REMARK  192  A    between atoms: _463  and  _465
REMARK  193  A    between atoms: _465  and  _466
REMARK  194  A    between atoms: _465  and  _468
REMARK  195  A    between atoms: _468  and  _469
REMARK  196  A    between atoms: _472  and  _474
REMARK  197  A    between atoms: _474  and  _475
REMARK  198  A    between atoms: _474  and  _477
REMARK  199  A    between atoms: _480  and  _482
REMARK  200  A    between atoms: _482  and  _483
REMARK  201  A    between atoms: _482  and  _485
REMARK  202  A    between atoms: _485  and  _486
REMARK  203  A    between atoms: _489  and  _491
REMARK  204  A    between atoms: _491  and  _492
REMARK  205  A    between atoms: _491  and  _494
REMARK  206  A    between atoms: _494  and  _495
REMARK  207  A    between atoms: _499  and  _500
REMARK  208  A    between atoms: _505  and  _507
REMARK  209  A    between atoms: _507  and  _508
REMARK  210  A    between atoms: _507  and  _510
REMARK  211  A    between atoms: _513  and  _515
REMARK  212  A    between atoms: _515  and  _516
REMARK  213  A    between atoms: _515  and  _518
REMARK  214  A    between atoms: _518  and  _519
REMARK  215  A    between atoms: _524  and  _526
REMARK  216  A    between atoms: _526  and  _527
REMARK  217  A    between atoms: _526  and  _529
REMARK  218  A    between atoms: _529  and  _530
REMARK  219  A    between atoms: _533  and  _535
REMARK  220  A    between atoms: _535  and  _536
REMARK  221  A    between atoms: _535  and  _538
REMARK  222  A    between atoms: _538  and  _539
REMARK  223  A    between atoms: _542  and  _544
REMARK  224  A    between atoms: _544  and  _545
REMARK  225  A    between atoms: _547  and  _549
REMARK  226  A    between atoms: _549  and  _550
REMARK  227  A    between atoms: _549  and  _552
REMARK  228  A    between atoms: _552  and  _553
REMARK  229  A    between atoms: _553  and  _554
REMARK  230  A    between atoms: _554  and  _555
REMARK  231  A    between atoms: _564  and  _566
REMARK  232  A    between atoms: _566  and  _567
REMARK  233  A    between atoms: _566  and  _569
REMARK  234  A    between atoms: _569  and  _570
REMARK                            x       y       z     vdW  Elec       q    Type
REMARK                         _______ _______ _______ _____ _____    ______ ____
ROOT
ATOM      1  C   GLY A   5       7.806  19.577   5.622  0.00  0.00    +0.243 C 
ATOM      2  O   GLY A   5       6.824  18.838   5.542  0.00  0.00    -0.273 OA
ATOM      3  N   ILE A   6       9.042  19.179   5.318  0.00  0.00    -0.297 N 
ATOM      4  H   ILE A   6       9.828  19.859   5.364  0.00  0.00    +0.150 HD
ENDROOT
BRANCH   3   5
ATOM      5  CA  ILE A   6       9.303  17.802   4.922  0.00  0.00    +0.149 C 
BRANCH   5   6
ATOM      6  C   ILE A   6       9.115  16.960   6.208  0.00  0.00    +0.241 C 
ATOM      7  O   ILE A   6       9.628  17.320   7.277  0.00  0.00    -0.273 OA
ATOM      8  N   GLY A   7       8.259  15.960   6.122  0.00  0.00    -0.295 N 
ATOM      9  H   GLY A   7       7.799  15.760   5.211  0.00  0.00    +0.150 HD
BRANCH   8  10
ATOM     10  CA  GLY A   7       7.945  15.131   7.276  0.00  0.00    +0.176 C 
BRANCH  10  11
ATOM     11  C   GLY A   7       6.624  15.465   7.951  0.00  0.00    +0.243 C 
ATOM     12  O   GLY A   7       6.247  14.785   8.913  0.00  0.00    -0.273 OA
ATOM     13  N   GLY A   8       5.935  16.505   7.460  0.00  0.00    -0.295 N 
ATOM     14  H   GLY A   8       6.350  17.041   6.671  0.00  0.00    +0.150 HD
BRANCH  13  15
ATOM     15  CA  GLY A   8       4.631  16.927   7.973  0.00  0.00    +0.176 C 
BRANCH  15  16
ATOM     16  C   GLY A   8       4.621  18.231   8.747  0.00  0.00    +0.243 C 
ATOM     17  N   PHE A   9       3.747  18.324   9.774  0.00  0.00    -0.297 N 
ATOM     18  H   PHE A   9       3.159  17.500  10.010  0.00  0.00    +0.150 HD
ATOM     19  O   GLY A   8       5.402  19.139   8.442  0.00  0.00    -0.273 OA
BRANCH  17  20
ATOM     20  CA  PHE A   9       3.601  19.555  10.569  0.00  0.00    +0.153 C 
BRANCH  20  21
ATOM     21  C   PHE A   9       4.020  19.414  12.020  0.00  0.00    +0.241 C 
ATOM     22  N   ILE A  10       4.413  20.552  12.634  0.00  0.00    -0.298 N 
ATOM     23  H   ILE A  10       4.533  21.409  12.058  0.00  0.00    +0.150 HD
ATOM     24  O   PHE A   9       3.928  18.324  12.596  0.00  0.00    -0.273 OA
BRANCH  22  25
ATOM     25  CA  ILE A  10       4.680  20.636  14.081  0.00  0.00    +0.137 C 
BRANCH  25  26
ATOM     26  C   ILE A  10       3.857  21.808  14.641  0.00  0.00    +0.227 C 
ATOM     27  O   ILE A  10       3.618  22.802  13.944  0.00  0.00    -0.286 OA
ENDBRANCH  25  26
BRANCH  25  28
ATOM     28  CB  ILE A  10       6.182  20.747  14.492  0.00  0.00    +0.026 C 
ATOM     29  CG2 ILE A  10       6.959  19.475  14.086  0.00  0.00    +0.002 C 
BRANCH  28  30
ATOM     30  CG1 ILE A  10       6.845  22.050  13.952  0.00  0.00    +0.002 C 
ATOM     31  CD1 ILE A  10       8.188  22.435  14.614  0.00  0.00    +0.000 C 
ENDBRANCH  28  30
ENDBRANCH  25  28
ENDBRANCH  22  25
ENDBRANCH  20  21
BRANCH  20  32
ATOM     32  CB  PHE A   9       2.127  20.022  10.577  0.00  0.00    +0.055 C 
BRANCH  32  33
ATOM     33  CG  PHE A   9       1.611  20.569   9.274  0.00  0.00    -0.020 A 
ATOM     34  CD2 PHE A   9       1.383  21.930   9.115  0.00  0.00    -0.004 A 
ATOM     35  CE2 PHE A   9       0.950  22.447   7.890  0.00  0.00    -0.000 A 
ATOM     36  CZ  PHE A   9       0.685  21.590   6.842  0.00  0.00    -0.000 A 
ATOM     37  CE1 PHE A   9       0.871  20.235   6.994  0.00  0.00    -0.000 A 
ATOM     38  CD1 PHE A   9       1.309  19.719   8.214  0.00  0.00    -0.004 A 
ENDBRANCH  32  33
ENDBRANCH  20  32
ENDBRANCH  17  20
ENDBRANCH  15  16
ENDBRANCH  13  15
ENDBRANCH  10  11
ENDBRANCH   8  10
ENDBRANCH   5   6
BRANCH   5  39
ATOM     39  CB  ILE A   6      10.661  17.611   4.189  0.00  0.00    +0.027 C 
ATOM     40  CG2 ILE A   6      11.450  16.422   4.770  0.00  0.00    +0.002 C 
BRANCH  39  41
ATOM     41  CG1 ILE A   6      10.437  17.448   2.631  0.00  0.00    +0.002 C 
ATOM     42  CD1 ILE A   6      11.586  17.651   1.758  0.00  0.00    +0.000 C 
ENDBRANCH  39  41
ENDBRANCH   5  39
ENDBRANCH   3   5
BRANCH   1  43
ATOM     43  CA  GLY A   5       7.646  21.003   6.081  0.00  0.00    +0.176 C 
BRANCH  43  45
ATOM     44  C   GLY A   4       5.808  22.369   6.937  0.00  0.00    +0.243 C 
ATOM     45  N   GLY A   5       6.384  21.193   6.782  0.00  0.00    -0.295 N 
ATOM     46  H   GLY A   5       5.912  20.357   7.182  0.00  0.00    +0.150 HD
ATOM     47  O   GLY A   4       6.277  23.435   6.537  0.00  0.00    -0.273 OA
BRANCH  44  48
ATOM     48  CA  GLY A   4       4.508  22.347   7.695  0.00  0.00    +0.176 C 
BRANCH  48  51
ATOM     49  C   ILE A   3       4.327  23.562   9.807  0.00  0.00    +0.241 C 
ATOM     50  O   ILE A   3       4.595  22.570  10.491  0.00  0.00    -0.273 OA
ATOM     51  N   GLY A   4       4.258  23.548   8.481  0.00  0.00    -0.295 N 
ATOM     52  H   GLY A   4       4.016  24.429   7.984  0.00  0.00    +0.150 HD
BRANCH  49  53
ATOM     53  CA  ILE A   3       3.944  24.877  10.482  0.00  0.00    +0.149 C 
BRANCH  53  55
ATOM     54  C   MET A   2       1.835  25.196  11.721  0.00  0.00    +0.241 C 
ATOM     55  N   ILE A   3       3.039  24.609  11.610  0.00  0.00    -0.297 N 
ATOM     56  H   ILE A   3       3.341  23.942  12.348  0.00  0.00    +0.150 HD
ATOM     57  O   MET A   2       1.400  26.032  10.912  0.00  0.00    -0.273 OA
BRANCH  54  58
ATOM     58  CA  MET A   2       0.977  24.794  12.903  0.00  0.00    +0.149 C 
BRANCH  58  61
ATOM     59  C   LYS A   1       0.820  26.439  14.694  0.00  0.00    +0.238 C 
ATOM     60  O   LYS A   1       1.519  25.755  15.461  0.00  0.00    -0.274 OA
ATOM     61  N   MET A   2       0.468  26.036  13.478  0.00  0.00    -0.297 N 
ATOM     62  H   MET A   2      -0.187  26.621  12.921  0.00  0.00    +0.150 HD
BRANCH  59  63
ATOM     63  CA  LYS A   1       0.323  27.828  15.104  0.00  0.00    +0.145 C 
BRANCH  63  64
ATOM     64  N   LYS A   1       0.185  27.860  16.549  0.00  0.00    -0.238 NA
ATOM     65  H   LYS A   1       0.843  27.284  17.111  0.00  0.00    +0.142 HD
ENDBRANCH  63  64
BRANCH  63  66
ATOM     66  CB  LYS A   1       1.334  28.917  14.647  0.00  0.00    +0.026 C 
BRANCH  66  67
ATOM     67  CG  LYS A   1       1.357  29.176  13.151  0.00  0.00    -0.000 C 
BRANCH  67  68
ATOM     68  CD  LYS A   1       2.371  30.263  12.749  0.00  0.00    -0.024 C 
BRANCH  68  69
ATOM     69  CE  LYS A   1       2.676  30.277  11.258  0.00  0.00    -0.086 C 
BRANCH  69  70
ATOM     70  NZ  LYS A   1       1.681  31.015  10.473  0.00  0.00    +0.380 N 
ATOM     71  HZ1 LYS A   1       1.648  32.003  10.797  0.00  0.00    -0.089 HD
ATOM     72  HZ2 LYS A   1       0.747  30.576  10.600  0.00  0.00    -0.089 HD
ATOM     73  HZ3 LYS A   1       1.945  30.988   9.467  0.00  0.00    -0.089 HD
ENDBRANCH  69  70
ENDBRANCH  68  69
ENDBRANCH  67  68
ENDBRANCH  66  67
ENDBRANCH  63  66
ENDBRANCH  59  63
ENDBRANCH  58  61
BRANCH  58  74
ATOM     74  CB  MET A   2      -0.173  23.892  12.407  0.00  0.00    +0.041 C 
BRANCH  74  75
ATOM     75  CG  MET A   2      -0.919  23.240  13.520  0.00  0.00    +0.060 C 
BRANCH  75  76
ATOM     76  SD  MET A   2      -0.027  21.806  14.151  0.00  0.00    -0.139 S 
ATOM     77  CE  MET A   2      -0.688  20.529  13.031  0.00  0.00    +0.069 C 
ENDBRANCH  75  76
ENDBRANCH  74  75
ENDBRANCH  58  74
ENDBRANCH  54  58
ENDBRANCH  53  55
BRANCH  53  78
ATOM     78  CB  ILE A   3       5.163  25.757  10.848  0.00  0.00    +0.027 C 
ATOM     79  CG2 ILE A   3       4.732  27.219  11.032  0.00  0.00    +0.002 C 
BRANCH  78  80
ATOM     80  CG1 ILE A   3       5.904  25.218  12.070  0.00  0.00    +0.002 C 
ATOM     81  CD1 ILE A   3       7.305  25.800  12.287  0.00  0.00    +0.000 C 
ENDBRANCH  78  80
ENDBRANCH  53  78
ENDBRANCH  49  53
ENDBRANCH  48  51
ENDBRANCH  44  48
ENDBRANCH  43  45
ENDBRANCH   1  43
TORSDOF 36
REMARK  Name = ../refined-set-2016/4mc2/4mc2_pocket.pdb
REMARK  234 active torsions:
REMARK  status: ('A' for Active; 'I' for Inactive)
REMARK    1  A    between atoms: _1  and  _3
REMARK    2  A    between atoms: _3  and  _4
REMARK    3  A    between atoms: _3  and  _6
REMARK    4  A    between atoms: _6  and  _7
REMARK    5  A    between atoms: _7  and  _8
REMARK    6  A    between atoms: _8  and  _9
REMARK    7  A    between atoms: _18  and  _20
REMARK    8  A    between atoms: _20  and  _21
REMARK    9  A    between atoms: _20  and  _23
REMARK   10  A    between atoms: _23  and  _24
REMARK   11  A    between atoms: _27  and  _29
REMARK   12  A    between atoms: _29  and  _30
REMARK   13  A    between atoms: _29  and  _32
REMARK   14  A    between atoms: _32  and  _33
REMARK   15  A    between atoms: _36  and  _38
REMARK   16  A    between atoms: _38  and  _39
REMARK   17  A    between atoms: _38  and  _41
REMARK   18  A    between atoms: _41  and  _42
REMARK   19  A    between atoms: _45  and  _47
REMARK   20  A    between atoms: _47  and  _48
REMARK   21  A    between atoms: _47  and  _50
REMARK   22  A    between atoms: _50  and  _51
REMARK   23  A    between atoms: _54  and  _56
REMARK   24  A    between atoms: _56  and  _57
REMARK   25  A    between atoms: _59  and  _61
REMARK   26  A    between atoms: _61  and  _62
REMARK   27  A    between atoms: _65  and  _67
REMARK   28  A    between atoms: _67  and  _68
REMARK   29  A    between atoms: _67  and  _70
REMARK   30  A    between atoms: _70  and  _71
REMARK   31  A    between atoms: _74  and  _76
REMARK   32  A    between atoms: _76  and  _77
REMARK   33  A    between atoms: _76  and  _79
REMARK   34  A    between atoms: _79  and  _80
REMARK   35  A    between atoms: _83  and  _85
REMARK   36  A    between atoms: _85  and  _86
REMARK   37  A    between atoms: _85  and  _88
REMARK   38  A    between atoms: _88  and  _89
REMARK   39  A    between atoms: _92  and  _94
REMARK   40  A    between atoms: _94  and  _95
REMARK   41  A    between atoms: _94  and  _97
REMARK   42  A    between atoms: _100  and  _102
REMARK   43  A    between atoms: _102  and  _103
REMARK   44  A    between atoms: _102  and  _105
REMARK   45  A    between atoms: _105  and  _106
REMARK   46  A    between atoms: _106  and  _107
REMARK   47  A    between atoms: _107  and  _108
REMARK   48  A    between atoms: _108  and  _109
REMARK   49  A    between atoms: _113  and  _115
REMARK   50  A    between atoms: _115  and  _116
REMARK   51  A    between atoms: _115  and  _118
REMARK   52  A    between atoms: _118  and  _119
REMARK   53  A    between atoms: _119  and  _120
REMARK   54  A    between atoms: _122  and  _124
REMARK   55  A    between atoms: _124  and  _125
REMARK   56  A    between atoms: _124  and  _127
REMARK   57  A    between atoms: _127  and  _128
REMARK   58  A    between atoms: _131  and  _133
REMARK   59  A    between atoms: _133  and  _134
REMARK   60  A    between atoms: _136  and  _138
REMARK   61  A    between atoms: _138  and  _139
REMARK   62  A    between atoms: _141  and  _143
REMARK   63  A    between atoms: _143  and  _144
REMARK   64  A    between atoms: _143  and  _146
REMARK   65  A    between atoms: _146  and  _147
REMARK   66  A    between atoms: _150  and  _152
REMARK   67  A    between atoms: _152  and  _153
REMARK   68  A    between atoms: _155  and  _157
REMARK   69  A    between atoms: _157  and  _158
REMARK   70  A    between atoms: _160  and  _162
REMARK   71  A    between atoms: _162  and  _163
REMARK   72  A    between atoms: _162  and  _165
REMARK   73  A    between atoms: _165  and  _166
REMARK   74  A    between atoms: _172  and  _174
REMARK   75  A    between atoms: _174  and  _175
REMARK   76  A    between atoms: _174  and  _177
REMARK   77  A    between atoms: _177  and  _178
REMARK   78  A    between atoms: _181  and  _183
REMARK   79  A    between atoms: _183  and  _184
REMARK   80  A    between atoms: _183  and  _186
REMARK   81  A    between atoms: _186  and  _187
REMARK   82  A    between atoms: _191  and  _192
REMARK   83  A    between atoms: _197  and  _199
REMARK   84  A    between atoms: _199  and  _200
REMARK   85  A    between atoms: _199  and  _202
REMARK   86  A    between atoms: _202  and  _203
REMARK   87  A    between atoms: _207  and  _208
REMARK   88  A    between atoms: _213  and  _215
REMARK   89  A    between atoms: _215  and  _216
REMARK   90  A    between atoms: _215  and  _218
REMARK   91  A    between atoms: _221  and  _223
REMARK   92  A    between atoms: _223  and  _224
REMARK   93  A    between atoms: _223  and  _226
REMARK   94  A    between atoms: _226  and  _227
REMARK   95  A    between atoms: _232  and  _234
REMARK   96  A    between atoms: _234  and  _235
REMARK   97  A    between atoms: _234  and  _237
REMARK   98  A    between atoms: _237  and  _238
REMARK   99  A    between atoms: _241  and  _243
REMARK  100  A    between atoms: _243  and  _244
REMARK  101  A    between atoms: _243  and  _246
REMARK  102  A    between atoms: _246  and  _247
REMARK  103  A    between atoms: _250  and  _252
REMARK  104  A    between atoms: _252  and  _253
REMARK  105  A    between atoms: _255  and  _257
REMARK  106  A    between atoms: _257  and  _258
REMARK  107  A    between atoms: _257  and  _260
REMARK  108  A    between atoms: _260  and  _261
REMARK  109  A    between atoms: _261  and  _262
REMARK  110  A    between atoms: _262  and  _263
REMARK  111  A    between atoms: _272  and  _274
REMARK  112  A    between atoms: _274  and  _275
REMARK  113  A    between atoms: _274  and  _277
REMARK  114  A    between atoms: _277  and  _278
REMARK  115  A    between atoms: _283  and  _285
REMARK  116  A    between atoms: _285  and  _286
REMARK  117  A    between atoms: _285  and  _288
REMARK  118  A    between atoms: _288  and  _289
REMARK  119  A    between atoms: _289  and  _290
REMARK  120  A    between atoms: _290  and  _291
REMARK  121  A    between atoms: _300  and  _302
REMARK  122  A    between atoms: _302  and  _303
REMARK  123  A    between atoms: _302  and  _305
REMARK  124  A    between atoms: _305  and  _306
REMARK  125  A    between atoms: _309  and  _311
REMARK  126  A    between atoms: _311  and  _312
REMARK  127  A    between atoms: _311  and  _314
REMARK  128  A    between atoms: _314  and  _315
REMARK  129  A    between atoms: _318  and  _320
REMARK  130  A    between atoms: _320  and  _321
REMARK  131  A    between atoms: _320  and  _323
REMARK  132  A    between atoms: _323  and  _324
REMARK  133  A    between atoms: _327  and  _329
REMARK  134  A    between atoms: _329  and  _330
REMARK  135  A    between atoms: _329  and  _332
REMARK  136  A    between atoms: _332  and  _333
REMARK  137  A    between atoms: _336  and  _338
REMARK  138  A    between atoms: _338  and  _339
REMARK  139  A    between atoms: _341  and  _343
REMARK  140  A    between atoms: _343  and  _344
REMARK  141  A    between atoms: _347  and  _349
REMARK  142  A    between atoms: _349  and  _350
REMARK  143  A    between atoms: _349  and  _352
REMARK  144  A    between atoms: _352  and  _353
REMARK  145  A    between atoms: _356  and  _358
REMARK  146  A    between atoms: _358  and  _359
REMARK  147  A    between atoms: _358  and  _361
REMARK  148  A    between atoms: _361  and  _362
REMARK  149  A    between atoms: _365  and  _367
REMARK  150  A    between atoms: _367  and  _368
REMARK  151  A    between atoms: _367  and  _370
REMARK  152  A    between atoms: _370  and  _371
REMARK  153  A    between atoms: _374  and  _376
REMARK  154  A    between atoms: _376  and  _377
REMARK  155  A    between atoms: _376  and  _379
REMARK  156  A    between atoms: _382  and  _384
REMARK  157  A    between atoms: _384  and  _385
REMARK  158  A    between atoms: _384  and  _387
REMARK  159  A    between atoms: _387  and  _388
REMARK  160  A    between atoms: _391  and  _393
REMARK  161  A    between atoms: _393  and  _394
REMARK  162  A    between atoms: _393  and  _396
REMARK  163  A    between atoms: _396  and  _397
REMARK  164  A    between atoms: _397  and  _398
REMARK  165  A    between atoms: _398  and  _399
REMARK  166  A    between atoms: _399  and  _400
REMARK  167  A    between atoms: _404  and  _406
REMARK  168  A    between atoms: _406  and  _407
REMARK  169  A    between atoms: _406  and  _409
REMARK  170  A    between atoms: _409  and  _410
REMARK  171  A    between atoms: _410  and  _411
REMARK  172  A    between atoms: _413  and  _415
REMARK  173  A    between atoms: _415  and  _416
REMARK  174  A    between atoms: _415  and  _418
REMARK  175  A    between atoms: _418  and  _419
REMARK  176  A    between atoms: _422  and  _424
REMARK  177  A    between atoms: _424  and  _425
REMARK  178  A    between atoms: _427  and  _429
REMARK  179  A    between atoms: _429  and  _430
REMARK  180  A    between atoms: _432  and  _434
REMARK  181  A    between atoms: _434  and  _435
REMARK  182  A    between atoms: _434  and  _437
REMARK  183  A    between atoms: _437  and  _438
REMARK  184  A    between atoms: _441  and  _443
REMARK  185  A    between atoms: _443  and  _444
REMARK  186  A    between atoms: _446  and  _448
REMARK  187  A    between atoms: _448  and  _449
REMARK  188  A    between atoms: _451  and  _453
REMARK  189  A    between atoms: _453  and  _454
REMARK  190  A    between atoms: _453  and  _456
REMARK  191  A    between atoms: _456  and  _457
REMARK  192  A    between atoms: _463  and  _465
REMARK  193  A    between atoms: _465  and  _466
REMARK  194  A    between atoms: _465  and  _468
REMARK  195  A    between atoms: _468  and  _469
REMARK  196  A    between atoms: _472  and  _474
REMARK  197  A    between atoms: _474  and  _475
REMARK  198  A    between atoms: _474  and  _477
REMARK  199  A    between atoms: _480  and  _482
REMARK  200  A    between atoms: _482  and  _483
REMARK  201  A    between atoms: _482  and  _485
REMARK  202  A    between atoms: _485  and  _486
REMARK  203  A    between atoms: _489  and  _491
REMARK  204  A    between atoms: _491  and  _492
REMARK  205  A    between atoms: _491  and  _494
REMARK  206  A    between atoms: _494  and  _495
REMARK  207  A    between atoms: _499  and  _500
REMARK  208  A    between atoms: _505  and  _507
REMARK  209  A    between atoms: _507  and  _508
REMARK  210  A    between atoms: _507  and  _510
REMARK  211  A    between atoms: _513  and  _515
REMARK  212  A    between atoms: _515  and  _516
REMARK  213  A    between atoms: _515  and  _518
REMARK  214  A    between atoms: _518  and  _519
REMARK  215  A    between atoms: _524  and  _526
REMARK  216  A    between atoms: _526  and  _527
REMARK  217  A    between atoms: _526  and  _529
REMARK  218  A    between atoms: _529  and  _530
REMARK  219  A    between atoms: _533  and  _535
REMARK  220  A    between atoms: _535  and  _536
REMARK  221  A    between atoms: _535  and  _538
REMARK  222  A    between atoms: _538  and  _539
REMARK  223  A    between atoms: _542  and  _544
REMARK  224  A    between atoms: _544  and  _545
REMARK  225  A    between atoms: _547  and  _549
REMARK  226  A    between atoms: _549  and  _550
REMARK  227  A    between atoms: _549  and  _552
REMARK  228  A    between atoms: _552  and  _553
REMARK  229  A    between atoms: _553  and  _554
REMARK  230  A    between atoms: _554  and  _555
REMARK  231  A    between atoms: _564  and  _566
REMARK  232  A    between atoms: _566  and  _567
REMARK  233  A    between atoms: _566  and  _569
REMARK  234  A    between atoms: _569  and  _570
REMARK                            x       y       z     vdW  Elec       q    Type
REMARK                         _______ _______ _______ _____ _____    ______ ____
ROOT
ATOM      1  CA  LEU A   1       7.925  30.590  16.548  0.00  0.00    +0.133 C 
ENDROOT
BRANCH   1   2
ATOM      2  N   LEU A   1       8.698  31.778  16.198  0.00  0.00    -0.239 NA
ATOM      3  H   LEU A   1       9.367  31.726  15.404  0.00  0.00    +0.142 HD
ENDBRANCH   1   2
BRANCH   1   4
ATOM      4  C   LEU A   1       8.789  29.691  17.420  0.00  0.00    +0.224 C 
ATOM      5  O   LEU A   1       9.980  29.539  17.152  0.00  0.00    -0.287 OA
ENDBRANCH   1   4
BRANCH   1   6
ATOM      6  CB  LEU A   1       7.499  29.826  15.290  0.00  0.00    +0.025 C 
BRANCH   6   7
ATOM      7  CG  LEU A   1       6.829  30.692  14.208  0.00  0.00    +0.002 C 
ATOM      8  CD2 LEU A   1       5.547  31.377  14.746  0.00  0.00    +0.000 C 
ATOM      9  CD1 LEU A   1       6.465  29.857  12.993  0.00  0.00    +0.000 C 
ENDBRANCH   6   7
ENDBRANCH   1   6
TORSDOF 4
REMARK  Name = ../refined-set-2016/4mc2/4mc2_pocket.pdb
REMARK  234 active torsions:
REMARK  status: ('A' for Active; 'I' for Inactive)
REMARK    1  A    between atoms: _1  and  _3
REMARK    2  A    between atoms: _3  and  _4
REMARK    3  A    between atoms: _3  and  _6
REMARK    4  A    between atoms: _6  and  _7
REMARK    5  A    between atoms: _7  and  _8
REMARK    6  A    between atoms: _8  and  _9
REMARK    7  A    between atoms: _18  and  _20
REMARK    8  A    between atoms: _20  and  _21
REMARK    9  A    between atoms: _20  and  _23
REMARK   10  A    between atoms: _23  and  _24
REMARK   11  A    between atoms: _27  and  _29
REMARK   12  A    between atoms: _29  and  _30
REMARK   13  A    between atoms: _29  and  _32
REMARK   14  A    between atoms: _32  and  _33
REMARK   15  A    between atoms: _36  and  _38
REMARK   16  A    between atoms: _38  and  _39
REMARK   17  A    between atoms: _38  and  _41
REMARK   18  A    between atoms: _41  and  _42
REMARK   19  A    between atoms: _45  and  _47
REMARK   20  A    between atoms: _47  and  _48
REMARK   21  A    between atoms: _47  and  _50
REMARK   22  A    between atoms: _50  and  _51
REMARK   23  A    between atoms: _54  and  _56
REMARK   24  A    between atoms: _56  and  _57
REMARK   25  A    between atoms: _59  and  _61
REMARK   26  A    between atoms: _61  and  _62
REMARK   27  A    between atoms: _65  and  _67
REMARK   28  A    between atoms: _67  and  _68
REMARK   29  A    between atoms: _67  and  _70
REMARK   30  A    between atoms: _70  and  _71
REMARK   31  A    between atoms: _74  and  _76
REMARK   32  A    between atoms: _76  and  _77
REMARK   33  A    between atoms: _76  and  _79
REMARK   34  A    between atoms: _79  and  _80
REMARK   35  A    between atoms: _83  and  _85
REMARK   36  A    between atoms: _85  and  _86
REMARK   37  A    between atoms: _85  and  _88
REMARK   38  A    between atoms: _88  and  _89
REMARK   39  A    between atoms: _92  and  _94
REMARK   40  A    between atoms: _94  and  _95
REMARK   41  A    between atoms: _94  and  _97
REMARK   42  A    between atoms: _100  and  _102
REMARK   43  A    between atoms: _102  and  _103
REMARK   44  A    between atoms: _102  and  _105
REMARK   45  A    between atoms: _105  and  _106
REMARK   46  A    between atoms: _106  and  _107
REMARK   47  A    between atoms: _107  and  _108
REMARK   48  A    between atoms: _108  and  _109
REMARK   49  A    between atoms: _113  and  _115
REMARK   50  A    between atoms: _115  and  _116
REMARK   51  A    between atoms: _115  and  _118
REMARK   52  A    between atoms: _118  and  _119
REMARK   53  A    between atoms: _119  and  _120
REMARK   54  A    between atoms: _122  and  _124
REMARK   55  A    between atoms: _124  and  _125
REMARK   56  A    between atoms: _124  and  _127
REMARK   57  A    between atoms: _127  and  _128
REMARK   58  A    between atoms: _131  and  _133
REMARK   59  A    between atoms: _133  and  _134
REMARK   60  A    between atoms: _136  and  _138
REMARK   61  A    between atoms: _138  and  _139
REMARK   62  A    between atoms: _141  and  _143
REMARK   63  A    between atoms: _143  and  _144
REMARK   64  A    between atoms: _143  and  _146
REMARK   65  A    between atoms: _146  and  _147
REMARK   66  A    between atoms: _150  and  _152
REMARK   67  A    between atoms: _152  and  _153
REMARK   68  A    between atoms: _155  and  _157
REMARK   69  A    between atoms: _157  and  _158
REMARK   70  A    between atoms: _160  and  _162
REMARK   71  A    between atoms: _162  and  _163
REMARK   72  A    between atoms: _162  and  _165
REMARK   73  A    between atoms: _165  and  _166
REMARK   74  A    between atoms: _172  and  _174
REMARK   75  A    between atoms: _174  and  _175
REMARK   76  A    between atoms: _174  and  _177
REMARK   77  A    between atoms: _177  and  _178
REMARK   78  A    between atoms: _181  and  _183
REMARK   79  A    between atoms: _183  and  _184
REMARK   80  A    between atoms: _183  and  _186
REMARK   81  A    between atoms: _186  and  _187
REMARK   82  A    between atoms: _191  and  _192
REMARK   83  A    between atoms: _197  and  _199
REMARK   84  A    between atoms: _199  and  _200
REMARK   85  A    between atoms: _199  and  _202
REMARK   86  A    between atoms: _202  and  _203
REMARK   87  A    between atoms: _207  and  _208
REMARK   88  A    between atoms: _213  and  _215
REMARK   89  A    between atoms: _215  and  _216
REMARK   90  A    between atoms: _215  and  _218
REMARK   91  A    between atoms: _221  and  _223
REMARK   92  A    between atoms: _223  and  _224
REMARK   93  A    between atoms: _223  and  _226
REMARK   94  A    between atoms: _226  and  _227
REMARK   95  A    between atoms: _232  and  _234
REMARK   96  A    between atoms: _234  and  _235
REMARK   97  A    between atoms: _234  and  _237
REMARK   98  A    between atoms: _237  and  _238
REMARK   99  A    between atoms: _241  and  _243
REMARK  100  A    between atoms: _243  and  _244
REMARK  101  A    between atoms: _243  and  _246
REMARK  102  A    between atoms: _246  and  _247
REMARK  103  A    between atoms: _250  and  _252
REMARK  104  A    between atoms: _252  and  _253
REMARK  105  A    between atoms: _255  and  _257
REMARK  106  A    between atoms: _257  and  _258
REMARK  107  A    between atoms: _257  and  _260
REMARK  108  A    between atoms: _260  and  _261
REMARK  109  A    between atoms: _261  and  _262
REMARK  110  A    between atoms: _262  and  _263
REMARK  111  A    between atoms: _272  and  _274
REMARK  112  A    between atoms: _274  and  _275
REMARK  113  A    between atoms: _274  and  _277
REMARK  114  A    between atoms: _277  and  _278
REMARK  115  A    between atoms: _283  and  _285
REMARK  116  A    between atoms: _285  and  _286
REMARK  117  A    between atoms: _285  and  _288
REMARK  118  A    between atoms: _288  and  _289
REMARK  119  A    between atoms: _289  and  _290
REMARK  120  A    between atoms: _290  and  _291
REMARK  121  A    between atoms: _300  and  _302
REMARK  122  A    between atoms: _302  and  _303
REMARK  123  A    between atoms: _302  and  _305
REMARK  124  A    between atoms: _305  and  _306
REMARK  125  A    between atoms: _309  and  _311
REMARK  126  A    between atoms: _311  and  _312
REMARK  127  A    between atoms: _311  and  _314
REMARK  128  A    between atoms: _314  and  _315
REMARK  129  A    between atoms: _318  and  _320
REMARK  130  A    between atoms: _320  and  _321
REMARK  131  A    between atoms: _320  and  _323
REMARK  132  A    between atoms: _323  and  _324
REMARK  133  A    between atoms: _327  and  _329
REMARK  134  A    between atoms: _329  and  _330
REMARK  135  A    between atoms: _329  and  _332
REMARK  136  A    between atoms: _332  and  _333
REMARK  137  A    between atoms: _336  and  _338
REMARK  138  A    between atoms: _338  and  _339
REMARK  139  A    between atoms: _341  and  _343
REMARK  140  A    between atoms: _343  and  _344
REMARK  141  A    between atoms: _347  and  _349
REMARK  142  A    between atoms: _349  and  _350
REMARK  143  A    between atoms: _349  and  _352
REMARK  144  A    between atoms: _352  and  _353
REMARK  145  A    between atoms: _356  and  _358
REMARK  146  A    between atoms: _358  and  _359
REMARK  147  A    between atoms: _358  and  _361
REMARK  148  A    between atoms: _361  and  _362
REMARK  149  A    between atoms: _365  and  _367
REMARK  150  A    between atoms: _367  and  _368
REMARK  151  A    between atoms: _367  and  _370
REMARK  152  A    between atoms: _370  and  _371
REMARK  153  A    between atoms: _374  and  _376
REMARK  154  A    between atoms: _376  and  _377
REMARK  155  A    between atoms: _376  and  _379
REMARK  156  A    between atoms: _382  and  _384
REMARK  157  A    between atoms: _384  and  _385
REMARK  158  A    between atoms: _384  and  _387
REMARK  159  A    between atoms: _387  and  _388
REMARK  160  A    between atoms: _391  and  _393
REMARK  161  A    between atoms: _393  and  _394
REMARK  162  A    between atoms: _393  and  _396
REMARK  163  A    between atoms: _396  and  _397
REMARK  164  A    between atoms: _397  and  _398
REMARK  165  A    between atoms: _398  and  _399
REMARK  166  A    between atoms: _399  and  _400
REMARK  167  A    between atoms: _404  and  _406
REMARK  168  A    between atoms: _406  and  _407
REMARK  169  A    between atoms: _406  and  _409
REMARK  170  A    between atoms: _409  and  _410
REMARK  171  A    between atoms: _410  and  _411
REMARK  172  A    between atoms: _413  and  _415
REMARK  173  A    between atoms: _415  and  _416
REMARK  174  A    between atoms: _415  and  _418
REMARK  175  A    between atoms: _418  and  _419
REMARK  176  A    between atoms: _422  and  _424
REMARK  177  A    between atoms: _424  and  _425
REMARK  178  A    between atoms: _427  and  _429
REMARK  179  A    between atoms: _429  and  _430
REMARK  180  A    between atoms: _432  and  _434
REMARK  181  A    between atoms: _434  and  _435
REMARK  182  A    between atoms: _434  and  _437
REMARK  183  A    between atoms: _437  and  _438
REMARK  184  A    between atoms: _441  and  _443
REMARK  185  A    between atoms: _443  and  _444
REMARK  186  A    between atoms: _446  and  _448
REMARK  187  A    between atoms: _448  and  _449
REMARK  188  A    between atoms: _451  and  _453
REMARK  189  A    between atoms: _453  and  _454
REMARK  190  A    between atoms: _453  and  _456
REMARK  191  A    between atoms: _456  and  _457
REMARK  192  A    between atoms: _463  and  _465
REMARK  193  A    between atoms: _465  and  _466
REMARK  194  A    between atoms: _465  and  _468
REMARK  195  A    between atoms: _468  and  _469
REMARK  196  A    between atoms: _472  and  _474
REMARK  197  A    between atoms: _474  and  _475
REMARK  198  A    between atoms: _474  and  _477
REMARK  199  A    between atoms: _480  and  _482
REMARK  200  A    between atoms: _482  and  _483
REMARK  201  A    between atoms: _482  and  _485
REMARK  202  A    between atoms: _485  and  _486
REMARK  203  A    between atoms: _489  and  _491
REMARK  204  A    between atoms: _491  and  _492
REMARK  205  A    between atoms: _491  and  _494
REMARK  206  A    between atoms: _494  and  _495
REMARK  207  A    between atoms: _499  and  _500
REMARK  208  A    between atoms: _505  and  _507
REMARK  209  A    between atoms: _507  and  _508
REMARK  210  A    between atoms: _507  and  _510
REMARK  211  A    between atoms: _513  and  _515
REMARK  212  A    between atoms: _515  and  _516
REMARK  213  A    between atoms: _515  and  _518
REMARK  214  A    between atoms: _518  and  _519
REMARK  215  A    between atoms: _524  and  _526
REMARK  216  A    between atoms: _526  and  _527
REMARK  217  A    between atoms: _526  and  _529
REMARK  218  A    between atoms: _529  and  _530
REMARK  219  A    between atoms: _533  and  _535
REMARK  220  A    between atoms: _535  and  _536
REMARK  221  A    between atoms: _535  and  _538
REMARK  222  A    between atoms: _538  and  _539
REMARK  223  A    between atoms: _542  and  _544
REMARK  224  A    between atoms: _544  and  _545
REMARK  225  A    between atoms: _547  and  _549
REMARK  226  A    between atoms: _549  and  _550
REMARK  227  A    between atoms: _549  and  _552
REMARK  228  A    between atoms: _552  and  _553
REMARK  229  A    between atoms: _553  and  _554
REMARK  230  A    between atoms: _554  and  _555
REMARK  231  A    between atoms: _564  and  _566
REMARK  232  A    between atoms: _566  and  _567
REMARK  233  A    between atoms: _566  and  _569
REMARK  234  A    between atoms: _569  and  _570
REMARK                            x       y       z     vdW  Elec       q    Type
REMARK                         _______ _______ _______ _____ _____    ______ ____
ROOT
ATOM      1  CA  ILE A   6      15.969  28.300  11.758  0.00  0.00    +0.149 C 
ENDROOT
BRANCH   1   2
ATOM      2  C   ILE A   6      15.688  29.808  11.751  0.00  0.00    +0.241 C 
ATOM      3  O   ILE A   6      14.693  30.253  12.349  0.00  0.00    -0.273 OA
ATOM      4  N   ILE A   7      16.514  30.575  11.015  0.00  0.00    -0.297 N 
ATOM      5  H   ILE A   7      17.362  30.140  10.600  0.00  0.00    +0.150 HD
BRANCH   4   6
ATOM      6  CA  ILE A   7      16.264  31.997  10.777  0.00  0.00    +0.149 C 
BRANCH   6   7
ATOM      7  C   ILE A   7      15.615  32.043   9.395  0.00  0.00    +0.241 C 
ATOM      8  N   GLY A   8      14.324  32.400   9.361  0.00  0.00    -0.295 N 
ATOM      9  H   GLY A   8      13.861  32.676  10.250  0.00  0.00    +0.150 HD
ATOM     10  O   ILE A   7      16.267  31.704   8.404  0.00  0.00    -0.273 OA
BRANCH   8  11
ATOM     11  CA  GLY A   8      13.546  32.418   8.140  0.00  0.00    +0.176 C 
BRANCH  11  12
ATOM     12  C   GLY A   8      13.485  33.784   7.503  0.00  0.00    +0.243 C 
ATOM     13  O   GLY A   8      14.067  34.756   8.011  0.00  0.00    -0.273 OA
ATOM     14  N   ARG A   9      12.789  33.851   6.366  0.00  0.00    -0.297 N 
ATOM     15  H   ARG A   9      12.270  33.012   6.036  0.00  0.00    +0.150 HD
BRANCH  14  16
ATOM     16  CA  ARG A   9      12.741  35.082   5.574  0.00  0.00    +0.149 C 
BRANCH  16  17
ATOM     17  C   ARG A   9      12.241  36.318   6.328  0.00  0.00    +0.241 C 
ATOM     18  N   ASN A  10      11.310  36.132   7.289  0.00  0.00    -0.298 N 
ATOM     19  H   ASN A  10      10.964  35.175   7.505  0.00  0.00    +0.150 HD
ATOM     20  O   ARG A   9      12.706  37.434   6.040  0.00  0.00    -0.273 OA
BRANCH  18  21
ATOM     21  CA  ASN A  10      10.789  37.291   8.028  0.00  0.00    +0.146 C 
BRANCH  21  22
ATOM     22  C   ASN A  10      11.909  38.112   8.707  0.00  0.00    +0.227 C 
ATOM     23  O   ASN A  10      11.782  39.335   8.825  0.00  0.00    -0.286 OA
ENDBRANCH  21  22
BRANCH  21  24
ATOM     24  CB  ASN A  10       9.696  36.881   9.010  0.00  0.00    +0.112 C 
BRANCH  24  25
ATOM     25  CG  ASN A  10      10.214  36.138  10.216  0.00  0.00    +0.222 C 
ATOM     26  ND2 ASN A  10       9.886  36.641  11.408  0.00  0.00    -0.329 N 
ATOM     27 HD21 ASN A  10      10.240  36.193  12.277  0.00  0.00    +0.145 HD
ATOM     28 HD22 ASN A  10       9.276  37.481  11.468  0.00  0.00    +0.145 HD
ATOM     29  OD1 ASN A  10      10.935  35.142  10.096  0.00  0.00    -0.275 OA
ENDBRANCH  24  25
ENDBRANCH  21  24
ENDBRANCH  18  21
ENDBRANCH  16  17
BRANCH  16  30
ATOM     30  CB  ARG A   9      11.932  34.898   4.292  0.00  0.00    +0.033 C 
BRANCH  30  31
ATOM     31  CG  ARG A   9      12.521  33.891   3.310  0.00  0.00    +0.045 C 
BRANCH  31  32
ATOM     32  CD  ARG A   9      11.766  33.881   1.978  0.00  0.00    +0.174 C 
BRANCH  32  33
ATOM     33  NE  ARG A   9      10.374  33.433   2.128  0.00  0.00    -0.265 N 
ATOM     34  CZ  ARG A   9       9.312  34.246   2.202  0.00  0.00    +0.342 C 
ATOM     35  NH2 ARG A   9       8.090  33.742   2.366  0.00  0.00    -0.292 N 
ATOM     36 HH21 ARG A   9       7.957  32.713   2.437  0.00  0.00    +0.255 HD
ATOM     37 HH22 ARG A   9       7.269  34.378   2.423  0.00  0.00    +0.255 HD
ATOM     38  NH1 ARG A   9       9.461  35.566   2.084  0.00  0.00    -0.292 N 
ATOM     39 HH11 ARG A   9       8.631  36.190   2.143  0.00  0.00    +0.255 HD
ATOM     40 HH12 ARG A   9      10.407  35.971   1.933  0.00  0.00    +0.255 HD
ATOM     41  HE  ARG A   9      10.201  32.409   2.181  0.00  0.00    +0.259 HD
ENDBRANCH  32  33
ENDBRANCH  31  32
ENDBRANCH  30  31
ENDBRANCH  16  30
ENDBRANCH  14  16
ENDBRANCH  11  12
ENDBRANCH   8  11
ENDBRANCH   6   7
BRANCH   6  42
ATOM     42  CB  ILE A   7      17.530  32.898  10.833  0.00  0.00    +0.027 C 
ATOM     43  CG2 ILE A   7      17.176  34.380  10.547  0.00  0.00    +0.002 C 
BRANCH  42  44
ATOM     44  CG1 ILE A   7      18.298  32.740  12.166  0.00  0.00    +0.002 C 
ATOM     45  CD1 ILE A   7      17.467  33.017  13.464  0.00  0.00    +0.000 C 
ENDBRANCH  42  44
ENDBRANCH   6  42
ENDBRANCH   4   6
ENDBRANCH   1   2
BRANCH   1  47
ATOM     46  C   ASN A   5      17.193  27.189  13.602  0.00  0.00    +0.241 C 
ATOM     47  N   ILE A   6      16.094  27.794  13.131  0.00  0.00    -0.297 N 
ATOM     48  H   ILE A   6      15.285  27.912  13.773  0.00  0.00    +0.150 HD
ATOM     49  O   ASN A   5      18.240  27.085  12.948  0.00  0.00    -0.273 OA
BRANCH  46  50
ATOM     50  CA  ASN A   5      17.097  26.615  15.032  0.00  0.00    +0.158 C 
BRANCH  50  52
ATOM     51  C   VAL A   4      16.876  24.256  14.397  0.00  0.00    +0.241 C 
ATOM     52  N   ASN A   5      17.620  25.241  14.956  0.00  0.00    -0.297 N 
ATOM     53  H   ASN A   5      18.565  25.025  15.333  0.00  0.00    +0.150 HD
ATOM     54  O   VAL A   4      15.715  24.437  14.010  0.00  0.00    -0.273 OA
BRANCH  51  55
ATOM     55  CA  VAL A   4      17.506  22.861  14.230  0.00  0.00    +0.149 C 
BRANCH  55  58
ATOM     56  C   PRO A   3      16.562  20.673  14.970  0.00  0.00    +0.241 C 
ATOM     57  O   PRO A   3      17.624  20.316  15.476  0.00  0.00    -0.273 OA
ATOM     58  N   VAL A   4      16.421  21.863  14.353  0.00  0.00    -0.297 N 
ATOM     59  H   VAL A   4      15.495  22.093  13.939  0.00  0.00    +0.150 HD
BRANCH  56  63
ATOM     60  C   THR A   2      13.586  21.215  15.788  0.00  0.00    +0.246 C 
ATOM     61  O   THR A   2      14.237  21.412  16.822  0.00  0.00    -0.273 OA
ATOM     62  N   PRO A   3      14.045  20.420  14.798  0.00  0.00    -0.272 N 
ATOM     63  CA  PRO A   3      15.344  19.728  14.960  0.00  0.00    +0.152 C 
ATOM     64  CB  PRO A   3      15.400  18.782  13.749  0.00  0.00    +0.031 C 
ATOM     65  CG  PRO A   3      14.027  18.772  13.148  0.00  0.00    +0.024 C 
ATOM     66  CD  PRO A   3      13.397  20.082  13.513  0.00  0.00    +0.094 C 
BRANCH  60  67
ATOM     67  CA  THR A   2      12.244  21.949  15.589  0.00  0.00    +0.176 C 
BRANCH  67  69
ATOM     68  C   PRO A   1      10.773  20.908  17.246  0.00  0.00    +0.239 C 
ATOM     69  N   THR A   2      11.504  21.964  16.846  0.00  0.00    -0.295 N 
ATOM     70  H   THR A   2      11.543  22.812  17.447  0.00  0.00    +0.150 HD
ATOM     71  O   PRO A   1      10.649  19.883  16.571  0.00  0.00    -0.274 OA
BRANCH  68  76
ATOM     72  N   PRO A   1       9.152  22.162  18.704  0.00  0.00    -0.210 NA
ATOM     73  CD  PRO A   1       7.745  21.706  18.727  0.00  0.00    +0.089 C 
ATOM     74  CG  PRO A   1       7.842  20.207  18.496  0.00  0.00    +0.021 C 
ATOM     75  CB  PRO A   1       9.233  19.824  18.980  0.00  0.00    +0.028 C 
ATOM     76  CA  PRO A   1      10.096  21.035  18.605  0.00  0.00    +0.149 C 
ENDBRANCH  68  76
ENDBRANCH  67  69
BRANCH  67  77
ATOM     77  CB  THR A   2      12.437  23.382  15.049  0.00  0.00    +0.137 C 
ATOM     78  CG2 THR A   2      13.094  24.307  16.056  0.00  0.00    +0.034 C 
BRANCH  77  79
ATOM     79  OG1 THR A   2      13.215  23.335  13.855  0.00  0.00    -0.382 OA
ATOM     80  HG1 THR A   2      14.098  22.933  14.053  0.00  0.00    +0.210 HD
ENDBRANCH  77  79
ENDBRANCH  67  77
ENDBRANCH  60  67
ENDBRANCH  56  63
ENDBRANCH  55  58
BRANCH  55  81
ATOM     81  CB  VAL A   4      18.193  22.770  12.812  0.00  0.00    +0.027 C 
ATOM     82  CG2 VAL A   4      19.324  23.781  12.643  0.00  0.00    +0.002 C 
ATOM     83  CG1 VAL A   4      18.694  21.359  12.476  0.00  0.00    +0.002 C 
ENDBRANCH  55  81
ENDBRANCH  51  55
ENDBRANCH  50  52
BRANCH  50  84
ATOM     84  CB  ASN A   5      17.895  27.472  15.997  0.00  0.00    +0.114 C 
BRANCH  84  85
ATOM     85  CG  ASN A   5      17.814  26.981  17.409  0.00  0.00    +0.222 C 
ATOM     86  ND2 ASN A   5      18.968  26.933  18.079  0.00  0.00    -0.329 N 
ATOM     87 HD21 ASN A   5      18.992  26.555  19.047  0.00  0.00    +0.145 HD
ATOM     88 HD22 ASN A   5      19.843  27.274  17.632  0.00  0.00    +0.145 HD
ATOM     89  OD1 ASN A   5      16.743  26.587  17.897  0.00  0.00    -0.275 OA
ENDBRANCH  84  85
ENDBRANCH  50  84
ENDBRANCH  46  50
ENDBRANCH   1  47
BRANCH   1  90
ATOM     90  CB  ILE A   6      14.795  27.511  11.076  0.00  0.00    +0.027 C 
ATOM     91  CG2 ILE A   6      14.355  28.163   9.749  0.00  0.00    +0.002 C 
BRANCH  90  92
ATOM     92  CG1 ILE A   6      15.170  26.024  10.847  0.00  0.00    +0.002 C 
ATOM     93  CD1 ILE A   6      14.021  25.075  10.705  0.00  0.00    +0.000 C 
ENDBRANCH  90  92
ENDBRANCH   1  90
TORSDOF 33
REMARK  Name = ../refined-set-2016/4mc2/4mc2_pocket.pdb
REMARK  234 active torsions:
REMARK  status: ('A' for Active; 'I' for Inactive)
REMARK    1  A    between atoms: _1  and  _3
REMARK    2  A    between atoms: _3  and  _4
REMARK    3  A    between atoms: _3  and  _6
REMARK    4  A    between atoms: _6  and  _7
REMARK    5  A    between atoms: _7  and  _8
REMARK    6  A    between atoms: _8  and  _9
REMARK    7  A    between atoms: _18  and  _20
REMARK    8  A    between atoms: _20  and  _21
REMARK    9  A    between atoms: _20  and  _23
REMARK   10  A    between atoms: _23  and  _24
REMARK   11  A    between atoms: _27  and  _29
REMARK   12  A    between atoms: _29  and  _30
REMARK   13  A    between atoms: _29  and  _32
REMARK   14  A    between atoms: _32  and  _33
REMARK   15  A    between atoms: _36  and  _38
REMARK   16  A    between atoms: _38  and  _39
REMARK   17  A    between atoms: _38  and  _41
REMARK   18  A    between atoms: _41  and  _42
REMARK   19  A    between atoms: _45  and  _47
REMARK   20  A    between atoms: _47  and  _48
REMARK   21  A    between atoms: _47  and  _50
REMARK   22  A    between atoms: _50  and  _51
REMARK   23  A    between atoms: _54  and  _56
REMARK   24  A    between atoms: _56  and  _57
REMARK   25  A    between atoms: _59  and  _61
REMARK   26  A    between atoms: _61  and  _62
REMARK   27  A    between atoms: _65  and  _67
REMARK   28  A    between atoms: _67  and  _68
REMARK   29  A    between atoms: _67  and  _70
REMARK   30  A    between atoms: _70  and  _71
REMARK   31  A    between atoms: _74  and  _76
REMARK   32  A    between atoms: _76  and  _77
REMARK   33  A    between atoms: _76  and  _79
REMARK   34  A    between atoms: _79  and  _80
REMARK   35  A    between atoms: _83  and  _85
REMARK   36  A    between atoms: _85  and  _86
REMARK   37  A    between atoms: _85  and  _88
REMARK   38  A    between atoms: _88  and  _89
REMARK   39  A    between atoms: _92  and  _94
REMARK   40  A    between atoms: _94  and  _95
REMARK   41  A    between atoms: _94  and  _97
REMARK   42  A    between atoms: _100  and  _102
REMARK   43  A    between atoms: _102  and  _103
REMARK   44  A    between atoms: _102  and  _105
REMARK   45  A    between atoms: _105  and  _106
REMARK   46  A    between atoms: _106  and  _107
REMARK   47  A    between atoms: _107  and  _108
REMARK   48  A    between atoms: _108  and  _109
REMARK   49  A    between atoms: _113  and  _115
REMARK   50  A    between atoms: _115  and  _116
REMARK   51  A    between atoms: _115  and  _118
REMARK   52  A    between atoms: _118  and  _119
REMARK   53  A    between atoms: _119  and  _120
REMARK   54  A    between atoms: _122  and  _124
REMARK   55  A    between atoms: _124  and  _125
REMARK   56  A    between atoms: _124  and  _127
REMARK   57  A    between atoms: _127  and  _128
REMARK   58  A    between atoms: _131  and  _133
REMARK   59  A    between atoms: _133  and  _134
REMARK   60  A    between atoms: _136  and  _138
REMARK   61  A    between atoms: _138  and  _139
REMARK   62  A    between atoms: _141  and  _143
REMARK   63  A    between atoms: _143  and  _144
REMARK   64  A    between atoms: _143  and  _146
REMARK   65  A    between atoms: _146  and  _147
REMARK   66  A    between atoms: _150  and  _152
REMARK   67  A    between atoms: _152  and  _153
REMARK   68  A    between atoms: _155  and  _157
REMARK   69  A    between atoms: _157  and  _158
REMARK   70  A    between atoms: _160  and  _162
REMARK   71  A    between atoms: _162  and  _163
REMARK   72  A    between atoms: _162  and  _165
REMARK   73  A    between atoms: _165  and  _166
REMARK   74  A    between atoms: _172  and  _174
REMARK   75  A    between atoms: _174  and  _175
REMARK   76  A    between atoms: _174  and  _177
REMARK   77  A    between atoms: _177  and  _178
REMARK   78  A    between atoms: _181  and  _183
REMARK   79  A    between atoms: _183  and  _184
REMARK   80  A    between atoms: _183  and  _186
REMARK   81  A    between atoms: _186  and  _187
REMARK   82  A    between atoms: _191  and  _192
REMARK   83  A    between atoms: _197  and  _199
REMARK   84  A    between atoms: _199  and  _200
REMARK   85  A    between atoms: _199  and  _202
REMARK   86  A    between atoms: _202  and  _203
REMARK   87  A    between atoms: _207  and  _208
REMARK   88  A    between atoms: _213  and  _215
REMARK   89  A    between atoms: _215  and  _216
REMARK   90  A    between atoms: _215  and  _218
REMARK   91  A    between atoms: _221  and  _223
REMARK   92  A    between atoms: _223  and  _224
REMARK   93  A    between atoms: _223  and  _226
REMARK   94  A    between atoms: _226  and  _227
REMARK   95  A    between atoms: _232  and  _234
REMARK   96  A    between atoms: _234  and  _235
REMARK   97  A    between atoms: _234  and  _237
REMARK   98  A    between atoms: _237  and  _238
REMARK   99  A    between atoms: _241  and  _243
REMARK  100  A    between atoms: _243  and  _244
REMARK  101  A    between atoms: _243  and  _246
REMARK  102  A    between atoms: _246  and  _247
REMARK  103  A    between atoms: _250  and  _252
REMARK  104  A    between atoms: _252  and  _253
REMARK  105  A    between atoms: _255  and  _257
REMARK  106  A    between atoms: _257  and  _258
REMARK  107  A    between atoms: _257  and  _260
REMARK  108  A    between atoms: _260  and  _261
REMARK  109  A    between atoms: _261  and  _262
REMARK  110  A    between atoms: _262  and  _263
REMARK  111  A    between atoms: _272  and  _274
REMARK  112  A    between atoms: _274  and  _275
REMARK  113  A    between atoms: _274  and  _277
REMARK  114  A    between atoms: _277  and  _278
REMARK  115  A    between atoms: _283  and  _285
REMARK  116  A    between atoms: _285  and  _286
REMARK  117  A    between atoms: _285  and  _288
REMARK  118  A    between atoms: _288  and  _289
REMARK  119  A    between atoms: _289  and  _290
REMARK  120  A    between atoms: _290  and  _291
REMARK  121  A    between atoms: _300  and  _302
REMARK  122  A    between atoms: _302  and  _303
REMARK  123  A    between atoms: _302  and  _305
REMARK  124  A    between atoms: _305  and  _306
REMARK  125  A    between atoms: _309  and  _311
REMARK  126  A    between atoms: _311  and  _312
REMARK  127  A    between atoms: _311  and  _314
REMARK  128  A    between atoms: _314  and  _315
REMARK  129  A    between atoms: _318  and  _320
REMARK  130  A    between atoms: _320  and  _321
REMARK  131  A    between atoms: _320  and  _323
REMARK  132  A    between atoms: _323  and  _324
REMARK  133  A    between atoms: _327  and  _329
REMARK  134  A    between atoms: _329  and  _330
REMARK  135  A    between atoms: _329  and  _332
REMARK  136  A    between atoms: _332  and  _333
REMARK  137  A    between atoms: _336  and  _338
REMARK  138  A    between atoms: _338  and  _339
REMARK  139  A    between atoms: _341  and  _343
REMARK  140  A    between atoms: _343  and  _344
REMARK  141  A    between atoms: _347  and  _349
REMARK  142  A    between atoms: _349  and  _350
REMARK  143  A    between atoms: _349  and  _352
REMARK  144  A    between atoms: _352  and  _353
REMARK  145  A    between atoms: _356  and  _358
REMARK  146  A    between atoms: _358  and  _359
REMARK  147  A    between atoms: _358  and  _361
REMARK  148  A    between atoms: _361  and  _362
REMARK  149  A    between atoms: _365  and  _367
REMARK  150  A    between atoms: _367  and  _368
REMARK  151  A    between atoms: _367  and  _370
REMARK  152  A    between atoms: _370  and  _371
REMARK  153  A    between atoms: _374  and  _376
REMARK  154  A    between atoms: _376  and  _377
REMARK  155  A    between atoms: _376  and  _379
REMARK  156  A    between atoms: _382  and  _384
REMARK  157  A    between atoms: _384  and  _385
REMARK  158  A    between atoms: _384  and  _387
REMARK  159  A    between atoms: _387  and  _388
REMARK  160  A    between atoms: _391  and  _393
REMARK  161  A    between atoms: _393  and  _394
REMARK  162  A    between atoms: _393  and  _396
REMARK  163  A    between atoms: _396  and  _397
REMARK  164  A    between atoms: _397  and  _398
REMARK  165  A    between atoms: _398  and  _399
REMARK  166  A    between atoms: _399  and  _400
REMARK  167  A    between atoms: _404  and  _406
REMARK  168  A    between atoms: _406  and  _407
REMARK  169  A    between atoms: _406  and  _409
REMARK  170  A    between atoms: _409  and  _410
REMARK  171  A    between atoms: _410  and  _411
REMARK  172  A    between atoms: _413  and  _415
REMARK  173  A    between atoms: _415  and  _416
REMARK  174  A    between atoms: _415  and  _418
REMARK  175  A    between atoms: _418  and  _419
REMARK  176  A    between atoms: _422  and  _424
REMARK  177  A    between atoms: _424  and  _425
REMARK  178  A    between atoms: _427  and  _429
REMARK  179  A    between atoms: _429  and  _430
REMARK  180  A    between atoms: _432  and  _434
REMARK  181  A    between atoms: _434  and  _435
REMARK  182  A    between atoms: _434  and  _437
REMARK  183  A    between atoms: _437  and  _438
REMARK  184  A    between atoms: _441  and  _443
REMARK  185  A    between atoms: _443  and  _444
REMARK  186  A    between atoms: _446  and  _448
REMARK  187  A    between atoms: _448  and  _449
REMARK  188  A    between atoms: _451  and  _453
REMARK  189  A    between atoms: _453  and  _454
REMARK  190  A    between atoms: _453  and  _456
REMARK  191  A    between atoms: _456  and  _457
REMARK  192  A    between atoms: _463  and  _465
REMARK  193  A    between atoms: _465  and  _466
REMARK  194  A    between atoms: _465  and  _468
REMARK  195  A    between atoms: _468  and  _469
REMARK  196  A    between atoms: _472  and  _474
REMARK  197  A    between atoms: _474  and  _475
REMARK  198  A    between atoms: _474  and  _477
REMARK  199  A    between atoms: _480  and  _482
REMARK  200  A    between atoms: _482  and  _483
REMARK  201  A    between atoms: _482  and  _485
REMARK  202  A    between atoms: _485  and  _486
REMARK  203  A    between atoms: _489  and  _491
REMARK  204  A    between atoms: _491  and  _492
REMARK  205  A    between atoms: _491  and  _494
REMARK  206  A    between atoms: _494  and  _495
REMARK  207  A    between atoms: _499  and  _500
REMARK  208  A    between atoms: _505  and  _507
REMARK  209  A    between atoms: _507  and  _508
REMARK  210  A    between atoms: _507  and  _510
REMARK  211  A    between atoms: _513  and  _515
REMARK  212  A    between atoms: _515  and  _516
REMARK  213  A    between atoms: _515  and  _518
REMARK  214  A    between atoms: _518  and  _519
REMARK  215  A    between atoms: _524  and  _526
REMARK  216  A    between atoms: _526  and  _527
REMARK  217  A    between atoms: _526  and  _529
REMARK  218  A    between atoms: _529  and  _530
REMARK  219  A    between atoms: _533  and  _535
REMARK  220  A    between atoms: _535  and  _536
REMARK  221  A    between atoms: _535  and  _538
REMARK  222  A    between atoms: _538  and  _539
REMARK  223  A    between atoms: _542  and  _544
REMARK  224  A    between atoms: _544  and  _545
REMARK  225  A    between atoms: _547  and  _549
REMARK  226  A    between atoms: _549  and  _550
REMARK  227  A    between atoms: _549  and  _552
REMARK  228  A    between atoms: _552  and  _553
REMARK  229  A    between atoms: _553  and  _554
REMARK  230  A    between atoms: _554  and  _555
REMARK  231  A    between atoms: _564  and  _566
REMARK  232  A    between atoms: _566  and  _567
REMARK  233  A    between atoms: _566  and  _569
REMARK  234  A    between atoms: _569  and  _570
REMARK                            x       y       z     vdW  Elec       q    Type
REMARK                         _______ _______ _______ _____ _____    ______ ____
ROOT
ATOM      1  NE  ARG A   1       6.840  29.621   0.626  0.00  0.00    -0.265 N 
ATOM      2  HE  ARG A   1       7.029  30.181   1.482  0.00  0.00    +0.259 HD
ATOM      3  CZ  ARG A   1       6.177  28.475   0.770  0.00  0.00    +0.342 C 
ATOM      4  NH2 ARG A   1       5.794  28.069   1.974  0.00  0.00    -0.292 N 
ATOM      5 HH21 ARG A   1       6.011  28.647   2.811  0.00  0.00    +0.255 HD
ATOM      6 HH22 ARG A   1       5.277  27.173   2.080  0.00  0.00    +0.255 HD
ATOM      7  NH1 ARG A   1       5.916  27.713  -0.287  0.00  0.00    -0.292 N 
ATOM      8 HH11 ARG A   1       5.398  26.819  -0.168  0.00  0.00    +0.255 HD
ATOM      9 HH12 ARG A   1       6.230  28.011  -1.233  0.00  0.00    +0.255 HD
ENDROOT
BRANCH   1  10
ATOM     10  CD  ARG A   1       7.323  30.149  -0.655  0.00  0.00    +0.174 C 
BRANCH  10  11
ATOM     11  CG  ARG A   1       8.147  31.410  -0.445  0.00  0.00    +0.045 C 
BRANCH  11  12
ATOM     12  CB  ARG A   1       8.785  31.881  -1.728  0.00  0.00    +0.029 C 
BRANCH  12  13
ATOM     13  CA  ARG A   1       9.703  33.089  -1.532  0.00  0.00    +0.133 C 
BRANCH  13  14
ATOM     14  N   ARG A   1       8.918  34.328  -1.409  0.00  0.00    -0.239 NA
ATOM     15  H   ARG A   1       7.879  34.301  -1.447  0.00  0.00    +0.142 HD
ENDBRANCH  13  14
BRANCH  13  16
ATOM     16  C   ARG A   1      10.639  33.190  -2.757  0.00  0.00    +0.224 C 
ATOM     17  O   ARG A   1      10.202  33.659  -3.824  0.00  0.00    -0.287 OA
ENDBRANCH  13  16
ENDBRANCH  12  13
ENDBRANCH  11  12
ENDBRANCH  10  11
ENDBRANCH   1  10
TORSDOF 6
REMARK  Name = ../refined-set-2016/4mc2/4mc2_pocket.pdb
REMARK  234 active torsions:
REMARK  status: ('A' for Active; 'I' for Inactive)
REMARK    1  A    between atoms: _1  and  _3
REMARK    2  A    between atoms: _3  and  _4
REMARK    3  A    between atoms: _3  and  _6
REMARK    4  A    between atoms: _6  and  _7
REMARK    5  A    between atoms: _7  and  _8
REMARK    6  A    between atoms: _8  and  _9
REMARK    7  A    between atoms: _18  and  _20
REMARK    8  A    between atoms: _20  and  _21
REMARK    9  A    between atoms: _20  and  _23
REMARK   10  A    between atoms: _23  and  _24
REMARK   11  A    between atoms: _27  and  _29
REMARK   12  A    between atoms: _29  and  _30
REMARK   13  A    between atoms: _29  and  _32
REMARK   14  A    between atoms: _32  and  _33
REMARK   15  A    between atoms: _36  and  _38
REMARK   16  A    between atoms: _38  and  _39
REMARK   17  A    between atoms: _38  and  _41
REMARK   18  A    between atoms: _41  and  _42
REMARK   19  A    between atoms: _45  and  _47
REMARK   20  A    between atoms: _47  and  _48
REMARK   21  A    between atoms: _47  and  _50
REMARK   22  A    between atoms: _50  and  _51
REMARK   23  A    between atoms: _54  and  _56
REMARK   24  A    between atoms: _56  and  _57
REMARK   25  A    between atoms: _59  and  _61
REMARK   26  A    between atoms: _61  and  _62
REMARK   27  A    between atoms: _65  and  _67
REMARK   28  A    between atoms: _67  and  _68
REMARK   29  A    between atoms: _67  and  _70
REMARK   30  A    between atoms: _70  and  _71
REMARK   31  A    between atoms: _74  and  _76
REMARK   32  A    between atoms: _76  and  _77
REMARK   33  A    between atoms: _76  and  _79
REMARK   34  A    between atoms: _79  and  _80
REMARK   35  A    between atoms: _83  and  _85
REMARK   36  A    between atoms: _85  and  _86
REMARK   37  A    between atoms: _85  and  _88
REMARK   38  A    between atoms: _88  and  _89
REMARK   39  A    between atoms: _92  and  _94
REMARK   40  A    between atoms: _94  and  _95
REMARK   41  A    between atoms: _94  and  _97
REMARK   42  A    between atoms: _100  and  _102
REMARK   43  A    between atoms: _102  and  _103
REMARK   44  A    between atoms: _102  and  _105
REMARK   45  A    between atoms: _105  and  _106
REMARK   46  A    between atoms: _106  and  _107
REMARK   47  A    between atoms: _107  and  _108
REMARK   48  A    between atoms: _108  and  _109
REMARK   49  A    between atoms: _113  and  _115
REMARK   50  A    between atoms: _115  and  _116
REMARK   51  A    between atoms: _115  and  _118
REMARK   52  A    between atoms: _118  and  _119
REMARK   53  A    between atoms: _119  and  _120
REMARK   54  A    between atoms: _122  and  _124
REMARK   55  A    between atoms: _124  and  _125
REMARK   56  A    between atoms: _124  and  _127
REMARK   57  A    between atoms: _127  and  _128
REMARK   58  A    between atoms: _131  and  _133
REMARK   59  A    between atoms: _133  and  _134
REMARK   60  A    between atoms: _136  and  _138
REMARK   61  A    between atoms: _138  and  _139
REMARK   62  A    between atoms: _141  and  _143
REMARK   63  A    between atoms: _143  and  _144
REMARK   64  A    between atoms: _143  and  _146
REMARK   65  A    between atoms: _146  and  _147
REMARK   66  A    between atoms: _150  and  _152
REMARK   67  A    between atoms: _152  and  _153
REMARK   68  A    between atoms: _155  and  _157
REMARK   69  A    between atoms: _157  and  _158
REMARK   70  A    between atoms: _160  and  _162
REMARK   71  A    between atoms: _162  and  _163
REMARK   72  A    between atoms: _162  and  _165
REMARK   73  A    between atoms: _165  and  _166
REMARK   74  A    between atoms: _172  and  _174
REMARK   75  A    between atoms: _174  and  _175
REMARK   76  A    between atoms: _174  and  _177
REMARK   77  A    between atoms: _177  and  _178
REMARK   78  A    between atoms: _181  and  _183
REMARK   79  A    between atoms: _183  and  _184
REMARK   80  A    between atoms: _183  and  _186
REMARK   81  A    between atoms: _186  and  _187
REMARK   82  A    between atoms: _191  and  _192
REMARK   83  A    between atoms: _197  and  _199
REMARK   84  A    between atoms: _199  and  _200
REMARK   85  A    between atoms: _199  and  _202
REMARK   86  A    between atoms: _202  and  _203
REMARK   87  A    between atoms: _207  and  _208
REMARK   88  A    between atoms: _213  and  _215
REMARK   89  A    between atoms: _215  and  _216
REMARK   90  A    between atoms: _215  and  _218
REMARK   91  A    between atoms: _221  and  _223
REMARK   92  A    between atoms: _223  and  _224
REMARK   93  A    between atoms: _223  and  _226
REMARK   94  A    between atoms: _226  and  _227
REMARK   95  A    between atoms: _232  and  _234
REMARK   96  A    between atoms: _234  and  _235
REMARK   97  A    between atoms: _234  and  _237
REMARK   98  A    between atoms: _237  and  _238
REMARK   99  A    between atoms: _241  and  _243
REMARK  100  A    between atoms: _243  and  _244
REMARK  101  A    between atoms: _243  and  _246
REMARK  102  A    between atoms: _246  and  _247
REMARK  103  A    between atoms: _250  and  _252
REMARK  104  A    between atoms: _252  and  _253
REMARK  105  A    between atoms: _255  and  _257
REMARK  106  A    between atoms: _257  and  _258
REMARK  107  A    between atoms: _257  and  _260
REMARK  108  A    between atoms: _260  and  _261
REMARK  109  A    between atoms: _261  and  _262
REMARK  110  A    between atoms: _262  and  _263
REMARK  111  A    between atoms: _272  and  _274
REMARK  112  A    between atoms: _274  and  _275
REMARK  113  A    between atoms: _274  and  _277
REMARK  114  A    between atoms: _277  and  _278
REMARK  115  A    between atoms: _283  and  _285
REMARK  116  A    between atoms: _285  and  _286
REMARK  117  A    between atoms: _285  and  _288
REMARK  118  A    between atoms: _288  and  _289
REMARK  119  A    between atoms: _289  and  _290
REMARK  120  A    between atoms: _290  and  _291
REMARK  121  A    between atoms: _300  and  _302
REMARK  122  A    between atoms: _302  and  _303
REMARK  123  A    between atoms: _302  and  _305
REMARK  124  A    between atoms: _305  and  _306
REMARK  125  A    between atoms: _309  and  _311
REMARK  126  A    between atoms: _311  and  _312
REMARK  127  A    between atoms: _311  and  _314
REMARK  128  A    between atoms: _314  and  _315
REMARK  129  A    between atoms: _318  and  _320
REMARK  130  A    between atoms: _320  and  _321
REMARK  131  A    between atoms: _320  and  _323
REMARK  132  A    between atoms: _323  and  _324
REMARK  133  A    between atoms: _327  and  _329
REMARK  134  A    between atoms: _329  and  _330
REMARK  135  A    between atoms: _329  and  _332
REMARK  136  A    between atoms: _332  and  _333
REMARK  137  A    between atoms: _336  and  _338
REMARK  138  A    between atoms: _338  and  _339
REMARK  139  A    between atoms: _341  and  _343
REMARK  140  A    between atoms: _343  and  _344
REMARK  141  A    between atoms: _347  and  _349
REMARK  142  A    between atoms: _349  and  _350
REMARK  143  A    between atoms: _349  and  _352
REMARK  144  A    between atoms: _352  and  _353
REMARK  145  A    between atoms: _356  and  _358
REMARK  146  A    between atoms: _358  and  _359
REMARK  147  A    between atoms: _358  and  _361
REMARK  148  A    between atoms: _361  and  _362
REMARK  149  A    between atoms: _365  and  _367
REMARK  150  A    between atoms: _367  and  _368
REMARK  151  A    between atoms: _367  and  _370
REMARK  152  A    between atoms: _370  and  _371
REMARK  153  A    between atoms: _374  and  _376
REMARK  154  A    between atoms: _376  and  _377
REMARK  155  A    between atoms: _376  and  _379
REMARK  156  A    between atoms: _382  and  _384
REMARK  157  A    between atoms: _384  and  _385
REMARK  158  A    between atoms: _384  and  _387
REMARK  159  A    between atoms: _387  and  _388
REMARK  160  A    between atoms: _391  and  _393
REMARK  161  A    between atoms: _393  and  _394
REMARK  162  A    between atoms: _393  and  _396
REMARK  163  A    between atoms: _396  and  _397
REMARK  164  A    between atoms: _397  and  _398
REMARK  165  A    between atoms: _398  and  _399
REMARK  166  A    between atoms: _399  and  _400
REMARK  167  A    between atoms: _404  and  _406
REMARK  168  A    between atoms: _406  and  _407
REMARK  169  A    between atoms: _406  and  _409
REMARK  170  A    between atoms: _409  and  _410
REMARK  171  A    between atoms: _410  and  _411
REMARK  172  A    between atoms: _413  and  _415
REMARK  173  A    between atoms: _415  and  _416
REMARK  174  A    between atoms: _415  and  _418
REMARK  175  A    between atoms: _418  and  _419
REMARK  176  A    between atoms: _422  and  _424
REMARK  177  A    between atoms: _424  and  _425
REMARK  178  A    between atoms: _427  and  _429
REMARK  179  A    between atoms: _429  and  _430
REMARK  180  A    between atoms: _432  and  _434
REMARK  181  A    between atoms: _434  and  _435
REMARK  182  A    between atoms: _434  and  _437
REMARK  183  A    between atoms: _437  and  _438
REMARK  184  A    between atoms: _441  and  _443
REMARK  185  A    between atoms: _443  and  _444
REMARK  186  A    between atoms: _446  and  _448
REMARK  187  A    between atoms: _448  and  _449
REMARK  188  A    between atoms: _451  and  _453
REMARK  189  A    between atoms: _453  and  _454
REMARK  190  A    between atoms: _453  and  _456
REMARK  191  A    between atoms: _456  and  _457
REMARK  192  A    between atoms: _463  and  _465
REMARK  193  A    between atoms: _465  and  _466
REMARK  194  A    between atoms: _465  and  _468
REMARK  195  A    between atoms: _468  and  _469
REMARK  196  A    between atoms: _472  and  _474
REMARK  197  A    between atoms: _474  and  _475
REMARK  198  A    between atoms: _474  and  _477
REMARK  199  A    between atoms: _480  and  _482
REMARK  200  A    between atoms: _482  and  _483
REMARK  201  A    between atoms: _482  and  _485
REMARK  202  A    between atoms: _485  and  _486
REMARK  203  A    between atoms: _489  and  _491
REMARK  204  A    between atoms: _491  and  _492
REMARK  205  A    between atoms: _491  and  _494
REMARK  206  A    between atoms: _494  and  _495
REMARK  207  A    between atoms: _499  and  _500
REMARK  208  A    between atoms: _505  and  _507
REMARK  209  A    between atoms: _507  and  _508
REMARK  210  A    between atoms: _507  and  _510
REMARK  211  A    between atoms: _513  and  _515
REMARK  212  A    between atoms: _515  and  _516
REMARK  213  A    between atoms: _515  and  _518
REMARK  214  A    between atoms: _518  and  _519
REMARK  215  A    between atoms: _524  and  _526
REMARK  216  A    between atoms: _526  and  _527
REMARK  217  A    between atoms: _526  and  _529
REMARK  218  A    between atoms: _529  and  _530
REMARK  219  A    between atoms: _533  and  _535
REMARK  220  A    between atoms: _535  and  _536
REMARK  221  A    between atoms: _535  and  _538
REMARK  222  A    between atoms: _538  and  _539
REMARK  223  A    between atoms: _542  and  _544
REMARK  224  A    between atoms: _544  and  _545
REMARK  225  A    between atoms: _547  and  _549
REMARK  226  A    between atoms: _549  and  _550
REMARK  227  A    between atoms: _549  and  _552
REMARK  228  A    between atoms: _552  and  _553
REMARK  229  A    between atoms: _553  and  _554
REMARK  230  A    between atoms: _554  and  _555
REMARK  231  A    between atoms: _564  and  _566
REMARK  232  A    between atoms: _566  and  _567
REMARK  233  A    between atoms: _566  and  _569
REMARK  234  A    between atoms: _569  and  _570
REMARK                            x       y       z     vdW  Elec       q    Type
REMARK                         _______ _______ _______ _____ _____    ______ ____
ROOT
ATOM      1  C   ALA A   6      19.657  21.774   2.129  0.00  0.00    +0.241 C 
ATOM      2  N   ASP A   7      20.163  20.660   2.710  0.00  0.00    -0.297 N 
ATOM      3  H   ASP A   7      19.635  20.172   3.462  0.00  0.00    +0.150 HD
ATOM      4  O   ALA A   6      20.266  22.388   1.257  0.00  0.00    -0.273 OA
ENDROOT
BRANCH   1   5
ATOM      5  CA  ALA A   6      18.280  22.285   2.572  0.00  0.00    +0.149 C 
ATOM      6  CB  ALA A   6      17.304  22.224   1.406  0.00  0.00    +0.031 C 
BRANCH   5   9
ATOM      7  C   GLY A   5      18.387  23.963   4.359  0.00  0.00    +0.243 C 
ATOM      8  O   GLY A   5      18.300  23.103   5.246  0.00  0.00    -0.273 OA
ATOM      9  N   ALA A   6      18.379  23.663   3.053  0.00  0.00    -0.297 N 
ATOM     10  H   ALA A   6      18.445  24.435   2.359  0.00  0.00    +0.150 HD
BRANCH   7  11
ATOM     11  CA  GLY A   5      18.479  25.431   4.728  0.00  0.00    +0.176 C 
BRANCH  11  13
ATOM     12  C   THR A   4      19.853  26.555   3.037  0.00  0.00    +0.243 C 
ATOM     13  N   GLY A   5      18.648  26.309   3.568  0.00  0.00    -0.295 N 
ATOM     14  H   GLY A   5      17.809  26.754   3.145  0.00  0.00    +0.150 HD
ATOM     15  O   THR A   4      20.908  26.083   3.476  0.00  0.00    -0.273 OA
BRANCH  12  16
ATOM     16  CA  THR A   4      19.909  27.465   1.808  0.00  0.00    +0.176 C 
BRANCH  16  18
ATOM     17  C   ASP A   3      18.056  26.578   0.477  0.00  0.00    +0.241 C 
ATOM     18  N   THR A   4      18.619  27.625   1.126  0.00  0.00    -0.295 N 
ATOM     19  H   THR A   4      18.136  28.546   1.141  0.00  0.00    +0.150 HD
ATOM     20  O   ASP A   3      18.553  25.445   0.482  0.00  0.00    -0.273 OA
BRANCH  17  21
ATOM     21  CA  ASP A   3      16.709  26.827  -0.193  0.00  0.00    +0.160 C 
BRANCH  21  24
ATOM     22  C   LEU A   2      16.284  28.179  -2.148  0.00  0.00    +0.241 C 
ATOM     23  O   LEU A   2      15.891  29.137  -1.466  0.00  0.00    -0.273 OA
ATOM     24  N   ASP A   3      16.762  27.062  -1.619  0.00  0.00    -0.297 N 
ATOM     25  H   ASP A   3      17.183  26.342  -2.240  0.00  0.00    +0.150 HD
BRANCH  22  26
ATOM     26  CA  LEU A   2      16.188  28.217  -3.658  0.00  0.00    +0.149 C 
BRANCH  26  29
ATOM     27  C   LEU A   1      14.031  27.028  -3.913  0.00  0.00    +0.238 C 
ATOM     28  O   LEU A   1      14.535  25.926  -3.655  0.00  0.00    -0.274 OA
ATOM     29  N   LEU A   2      14.750  28.174  -3.973  0.00  0.00    -0.297 N 
ATOM     30  H   LEU A   2      14.270  29.054  -4.251  0.00  0.00    +0.150 HD
BRANCH  27  31
ATOM     31  CA  LEU A   1      12.519  27.124  -4.146  0.00  0.00    +0.145 C 
BRANCH  31  32
ATOM     32  N   LEU A   1      12.094  26.197  -5.177  0.00  0.00    -0.238 NA
ATOM     33  H   LEU A   1      11.913  25.210  -4.903  0.00  0.00    +0.142 HD
ENDBRANCH  31  32
BRANCH  31  34
ATOM     34  CB  LEU A   1      11.757  26.701  -2.875  0.00  0.00    +0.026 C 
BRANCH  34  35
ATOM     35  CG  LEU A   1      11.864  27.548  -1.614  0.00  0.00    +0.002 C 
ATOM     36  CD2 LEU A   1      11.132  26.854  -0.477  0.00  0.00    +0.000 C 
ATOM     37  CD1 LEU A   1      11.248  28.932  -1.827  0.00  0.00    +0.000 C 
ENDBRANCH  34  35
ENDBRANCH  31  34
ENDBRANCH  27  31
ENDBRANCH  26  29
BRANCH  26  38
ATOM     38  CB  LEU A   2      16.865  29.475  -4.220  0.00  0.00    +0.029 C 
BRANCH  38  39
ATOM     39  CG  LEU A   2      16.769  29.684  -5.731  0.00  0.00    +0.002 C 
ATOM     40  CD2 LEU A   2      17.510  30.930  -6.129  0.00  0.00    +0.000 C 
ATOM     41  CD1 LEU A   2      17.310  28.486  -6.515  0.00  0.00    +0.000 C 
ENDBRANCH  38  39
ENDBRANCH  26  38
ENDBRANCH  22  26
ENDBRANCH  21  24
BRANCH  21  42
ATOM     42  CB  ASP A   3      15.778  25.631   0.020  0.00  0.00    +0.143 C 
BRANCH  42  43
ATOM     43  CG  ASP A   3      15.376  25.364   1.444  0.00  0.00    +0.367 C 
ATOM     44  OD2 ASP A   3      15.946  26.019   2.368  0.00  0.00    -0.246 OA
ATOM     45  OD1 ASP A   3      14.455  24.569   1.643  0.00  0.00    -0.246 OA
ENDBRANCH  42  43
ENDBRANCH  21  42
ENDBRANCH  17  21
ENDBRANCH  16  18
BRANCH  16  46
ATOM     46  CB  THR A   4      20.485  28.825   2.184  0.00  0.00    +0.137 C 
ATOM     47  CG2 THR A   4      20.712  29.698   0.944  0.00  0.00    +0.034 C 
BRANCH  46  48
ATOM     48  OG1 THR A   4      19.560  29.473   3.055  0.00  0.00    -0.382 OA
ATOM     49  HG1 THR A   4      19.430  28.921   3.866  0.00  0.00    +0.210 HD
ENDBRANCH  46  48
ENDBRANCH  16  46
ENDBRANCH  12  16
ENDBRANCH  11  13
ENDBRANCH   7  11
ENDBRANCH   5   9
ENDBRANCH   1   5
BRANCH   2  50
ATOM     50  CA  ASP A   7      21.461  20.151   2.268  0.00  0.00    +0.160 C 
BRANCH  50  51
ATOM     51  C   ASP A   7      21.382  19.596   0.848  0.00  0.00    +0.241 C 
ATOM     52  N   ASP A   8      20.219  19.014   0.515  0.00  0.00    -0.297 N 
ATOM     53  H   ASP A   8      19.430  19.087   1.188  0.00  0.00    +0.150 HD
ATOM     54  O   ASP A   7      22.363  19.667   0.097  0.00  0.00    -0.273 OA
BRANCH  52  55
ATOM     55  CA  ASP A   8      19.987  18.283  -0.732  0.00  0.00    +0.160 C 
BRANCH  55  56
ATOM     56  C   ASP A   8      18.823  18.852  -1.527  0.00  0.00    +0.241 C 
ATOM     57  O   ASP A   8      18.006  19.603  -0.995  0.00  0.00    -0.273 OA
ATOM     58  N   THR A   9      18.770  18.489  -2.818  0.00  0.00    -0.295 N 
ATOM     59  H   THR A   9      19.513  17.857  -3.179  0.00  0.00    +0.150 HD
BRANCH  58  60
ATOM     60  CA  THR A   9      17.726  18.931  -3.750  0.00  0.00    +0.176 C 
BRANCH  60  61
ATOM     61  C   THR A   9      16.672  17.836  -3.782  0.00  0.00    +0.243 C 
ATOM     62  N   VAL A  10      15.400  18.207  -3.574  0.00  0.00    -0.297 N 
ATOM     63  H   VAL A  10      15.193  19.216  -3.432  0.00  0.00    +0.150 HD
ATOM     64  O   THR A   9      17.015  16.667  -4.002  0.00  0.00    -0.273 OA
BRANCH  62  65
ATOM     65  CA  VAL A  10      14.294  17.256  -3.538  0.00  0.00    +0.149 C 
BRANCH  65  66
ATOM     66  C   VAL A  10      13.192  17.757  -4.464  0.00  0.00    +0.241 C 
ATOM     67  O   VAL A  10      12.747  18.897  -4.325  0.00  0.00    -0.273 OA
ATOM     68  N   ILE A  11      12.758  16.908  -5.391  0.00  0.00    -0.298 N 
ATOM     69  H   ILE A  11      13.164  15.951  -5.418  0.00  0.00    +0.150 HD
BRANCH  68  70
ATOM     70  CA  ILE A  11      11.729  17.262  -6.380  0.00  0.00    +0.137 C 
BRANCH  70  71
ATOM     71  CB  ILE A  11      12.316  17.161  -7.838  0.00  0.00    +0.026 C 
ATOM     72  CG2 ILE A  11      11.284  17.436  -8.977  0.00  0.00    +0.002 C 
BRANCH  71  73
ATOM     73  CG1 ILE A  11      13.587  18.035  -8.020  0.00  0.00    +0.002 C 
ATOM     74  CD1 ILE A  11      13.422  19.525  -7.875  0.00  0.00    +0.000 C 
ENDBRANCH  71  73
ENDBRANCH  70  71
BRANCH  70  75
ATOM     75  C   ILE A  11      10.521  16.346  -6.202  0.00  0.00    +0.227 C 
ATOM     76  O   ILE A  11      10.671  15.190  -5.794  0.00  0.00    -0.286 OA
ENDBRANCH  70  75
ENDBRANCH  68  70
ENDBRANCH  65  66
BRANCH  65  77
ATOM     77  CB  VAL A  10      13.748  17.015  -2.103  0.00  0.00    +0.027 C 
ATOM     78  CG2 VAL A  10      14.876  16.882  -1.097  0.00  0.00    +0.002 C 
ATOM     79  CG1 VAL A  10      12.858  15.779  -2.066  0.00  0.00    +0.002 C 
ENDBRANCH  65  77
ENDBRANCH  62  65
ENDBRANCH  60  61
BRANCH  60  80
ATOM     80  CB  THR A   9      18.350  19.135  -5.131  0.00  0.00    +0.137 C 
ATOM     81  CG2 THR A   9      17.300  19.378  -6.242  0.00  0.00    +0.034 C 
BRANCH  80  82
ATOM     82  OG1 THR A   9      19.248  20.255  -5.055  0.00  0.00    -0.382 OA
ATOM     83  HG1 THR A   9      19.953  20.066  -4.386  0.00  0.00    +0.210 HD
ENDBRANCH  80  82
ENDBRANCH  60  80
ENDBRANCH  58  60
ENDBRANCH  55  56
BRANCH  55  84
ATOM     84  CB  ASP A   8      19.688  16.810  -0.397  0.00  0.00    +0.143 C 
BRANCH  84  85
ATOM     85  CG  ASP A   8      20.674  16.169   0.567  0.00  0.00    +0.367 C 
ATOM     86  OD2 ASP A   8      20.221  15.532   1.541  0.00  0.00    -0.246 OA
ATOM     87  OD1 ASP A   8      21.897  16.336   0.364  0.00  0.00    -0.246 OA
ENDBRANCH  84  85
ENDBRANCH  55  84
ENDBRANCH  52  55
ENDBRANCH  50  51
BRANCH  50  88
ATOM     88  CB  ASP A   7      21.935  19.000   3.183  0.00  0.00    +0.143 C 
BRANCH  88  89
ATOM     89  CG  ASP A   7      21.996  19.326   4.663  0.00  0.00    +0.367 C 
ATOM     90  OD2 ASP A   7      21.623  18.452   5.475  0.00  0.00    -0.246 OA
ATOM     91  OD1 ASP A   7      22.480  20.424   5.014  0.00  0.00    -0.246 OA
ENDBRANCH  88  89
ENDBRANCH  50  88
ENDBRANCH   2  50
TORSDOF 39
REMARK  Name = ../refined-set-2016/4mc2/4mc2_pocket.pdb
REMARK  234 active torsions:
REMARK  status: ('A' for Active; 'I' for Inactive)
REMARK    1  A    between atoms: _1  and  _3
REMARK    2  A    between atoms: _3  and  _4
REMARK    3  A    between atoms: _3  and  _6
REMARK    4  A    between atoms: _6  and  _7
REMARK    5  A    between atoms: _7  and  _8
REMARK    6  A    between atoms: _8  and  _9
REMARK    7  A    between atoms: _18  and  _20
REMARK    8  A    between atoms: _20  and  _21
REMARK    9  A    between atoms: _20  and  _23
REMARK   10  A    between atoms: _23  and  _24
REMARK   11  A    between atoms: _27  and  _29
REMARK   12  A    between atoms: _29  and  _30
REMARK   13  A    between atoms: _29  and  _32
REMARK   14  A    between atoms: _32  and  _33
REMARK   15  A    between atoms: _36  and  _38
REMARK   16  A    between atoms: _38  and  _39
REMARK   17  A    between atoms: _38  and  _41
REMARK   18  A    between atoms: _41  and  _42
REMARK   19  A    between atoms: _45  and  _47
REMARK   20  A    between atoms: _47  and  _48
REMARK   21  A    between atoms: _47  and  _50
REMARK   22  A    between atoms: _50  and  _51
REMARK   23  A    between atoms: _54  and  _56
REMARK   24  A    between atoms: _56  and  _57
REMARK   25  A    between atoms: _59  and  _61
REMARK   26  A    between atoms: _61  and  _62
REMARK   27  A    between atoms: _65  and  _67
REMARK   28  A    between atoms: _67  and  _68
REMARK   29  A    between atoms: _67  and  _70
REMARK   30  A    between atoms: _70  and  _71
REMARK   31  A    between atoms: _74  and  _76
REMARK   32  A    between atoms: _76  and  _77
REMARK   33  A    between atoms: _76  and  _79
REMARK   34  A    between atoms: _79  and  _80
REMARK   35  A    between atoms: _83  and  _85
REMARK   36  A    between atoms: _85  and  _86
REMARK   37  A    between atoms: _85  and  _88
REMARK   38  A    between atoms: _88  and  _89
REMARK   39  A    between atoms: _92  and  _94
REMARK   40  A    between atoms: _94  and  _95
REMARK   41  A    between atoms: _94  and  _97
REMARK   42  A    between atoms: _100  and  _102
REMARK   43  A    between atoms: _102  and  _103
REMARK   44  A    between atoms: _102  and  _105
REMARK   45  A    between atoms: _105  and  _106
REMARK   46  A    between atoms: _106  and  _107
REMARK   47  A    between atoms: _107  and  _108
REMARK   48  A    between atoms: _108  and  _109
REMARK   49  A    between atoms: _113  and  _115
REMARK   50  A    between atoms: _115  and  _116
REMARK   51  A    between atoms: _115  and  _118
REMARK   52  A    between atoms: _118  and  _119
REMARK   53  A    between atoms: _119  and  _120
REMARK   54  A    between atoms: _122  and  _124
REMARK   55  A    between atoms: _124  and  _125
REMARK   56  A    between atoms: _124  and  _127
REMARK   57  A    between atoms: _127  and  _128
REMARK   58  A    between atoms: _131  and  _133
REMARK   59  A    between atoms: _133  and  _134
REMARK   60  A    between atoms: _136  and  _138
REMARK   61  A    between atoms: _138  and  _139
REMARK   62  A    between atoms: _141  and  _143
REMARK   63  A    between atoms: _143  and  _144
REMARK   64  A    between atoms: _143  and  _146
REMARK   65  A    between atoms: _146  and  _147
REMARK   66  A    between atoms: _150  and  _152
REMARK   67  A    between atoms: _152  and  _153
REMARK   68  A    between atoms: _155  and  _157
REMARK   69  A    between atoms: _157  and  _158
REMARK   70  A    between atoms: _160  and  _162
REMARK   71  A    between atoms: _162  and  _163
REMARK   72  A    between atoms: _162  and  _165
REMARK   73  A    between atoms: _165  and  _166
REMARK   74  A    between atoms: _172  and  _174
REMARK   75  A    between atoms: _174  and  _175
REMARK   76  A    between atoms: _174  and  _177
REMARK   77  A    between atoms: _177  and  _178
REMARK   78  A    between atoms: _181  and  _183
REMARK   79  A    between atoms: _183  and  _184
REMARK   80  A    between atoms: _183  and  _186
REMARK   81  A    between atoms: _186  and  _187
REMARK   82  A    between atoms: _191  and  _192
REMARK   83  A    between atoms: _197  and  _199
REMARK   84  A    between atoms: _199  and  _200
REMARK   85  A    between atoms: _199  and  _202
REMARK   86  A    between atoms: _202  and  _203
REMARK   87  A    between atoms: _207  and  _208
REMARK   88  A    between atoms: _213  and  _215
REMARK   89  A    between atoms: _215  and  _216
REMARK   90  A    between atoms: _215  and  _218
REMARK   91  A    between atoms: _221  and  _223
REMARK   92  A    between atoms: _223  and  _224
REMARK   93  A    between atoms: _223  and  _226
REMARK   94  A    between atoms: _226  and  _227
REMARK   95  A    between atoms: _232  and  _234
REMARK   96  A    between atoms: _234  and  _235
REMARK   97  A    between atoms: _234  and  _237
REMARK   98  A    between atoms: _237  and  _238
REMARK   99  A    between atoms: _241  and  _243
REMARK  100  A    between atoms: _243  and  _244
REMARK  101  A    between atoms: _243  and  _246
REMARK  102  A    between atoms: _246  and  _247
REMARK  103  A    between atoms: _250  and  _252
REMARK  104  A    between atoms: _252  and  _253
REMARK  105  A    between atoms: _255  and  _257
REMARK  106  A    between atoms: _257  and  _258
REMARK  107  A    between atoms: _257  and  _260
REMARK  108  A    between atoms: _260  and  _261
REMARK  109  A    between atoms: _261  and  _262
REMARK  110  A    between atoms: _262  and  _263
REMARK  111  A    between atoms: _272  and  _274
REMARK  112  A    between atoms: _274  and  _275
REMARK  113  A    between atoms: _274  and  _277
REMARK  114  A    between atoms: _277  and  _278
REMARK  115  A    between atoms: _283  and  _285
REMARK  116  A    between atoms: _285  and  _286
REMARK  117  A    between atoms: _285  and  _288
REMARK  118  A    between atoms: _288  and  _289
REMARK  119  A    between atoms: _289  and  _290
REMARK  120  A    between atoms: _290  and  _291
REMARK  121  A    between atoms: _300  and  _302
REMARK  122  A    between atoms: _302  and  _303
REMARK  123  A    between atoms: _302  and  _305
REMARK  124  A    between atoms: _305  and  _306
REMARK  125  A    between atoms: _309  and  _311
REMARK  126  A    between atoms: _311  and  _312
REMARK  127  A    between atoms: _311  and  _314
REMARK  128  A    between atoms: _314  and  _315
REMARK  129  A    between atoms: _318  and  _320
REMARK  130  A    between atoms: _320  and  _321
REMARK  131  A    between atoms: _320  and  _323
REMARK  132  A    between atoms: _323  and  _324
REMARK  133  A    between atoms: _327  and  _329
REMARK  134  A    between atoms: _329  and  _330
REMARK  135  A    between atoms: _329  and  _332
REMARK  136  A    between atoms: _332  and  _333
REMARK  137  A    between atoms: _336  and  _338
REMARK  138  A    between atoms: _338  and  _339
REMARK  139  A    between atoms: _341  and  _343
REMARK  140  A    between atoms: _343  and  _344
REMARK  141  A    between atoms: _347  and  _349
REMARK  142  A    between atoms: _349  and  _350
REMARK  143  A    between atoms: _349  and  _352
REMARK  144  A    between atoms: _352  and  _353
REMARK  145  A    between atoms: _356  and  _358
REMARK  146  A    between atoms: _358  and  _359
REMARK  147  A    between atoms: _358  and  _361
REMARK  148  A    between atoms: _361  and  _362
REMARK  149  A    between atoms: _365  and  _367
REMARK  150  A    between atoms: _367  and  _368
REMARK  151  A    between atoms: _367  and  _370
REMARK  152  A    between atoms: _370  and  _371
REMARK  153  A    between atoms: _374  and  _376
REMARK  154  A    between atoms: _376  and  _377
REMARK  155  A    between atoms: _376  and  _379
REMARK  156  A    between atoms: _382  and  _384
REMARK  157  A    between atoms: _384  and  _385
REMARK  158  A    between atoms: _384  and  _387
REMARK  159  A    between atoms: _387  and  _388
REMARK  160  A    between atoms: _391  and  _393
REMARK  161  A    between atoms: _393  and  _394
REMARK  162  A    between atoms: _393  and  _396
REMARK  163  A    between atoms: _396  and  _397
REMARK  164  A    between atoms: _397  and  _398
REMARK  165  A    between atoms: _398  and  _399
REMARK  166  A    between atoms: _399  and  _400
REMARK  167  A    between atoms: _404  and  _406
REMARK  168  A    between atoms: _406  and  _407
REMARK  169  A    between atoms: _406  and  _409
REMARK  170  A    between atoms: _409  and  _410
REMARK  171  A    between atoms: _410  and  _411
REMARK  172  A    between atoms: _413  and  _415
REMARK  173  A    between atoms: _415  and  _416
REMARK  174  A    between atoms: _415  and  _418
REMARK  175  A    between atoms: _418  and  _419
REMARK  176  A    between atoms: _422  and  _424
REMARK  177  A    between atoms: _424  and  _425
REMARK  178  A    between atoms: _427  and  _429
REMARK  179  A    between atoms: _429  and  _430
REMARK  180  A    between atoms: _432  and  _434
REMARK  181  A    between atoms: _434  and  _435
REMARK  182  A    between atoms: _434  and  _437
REMARK  183  A    between atoms: _437  and  _438
REMARK  184  A    between atoms: _441  and  _443
REMARK  185  A    between atoms: _443  and  _444
REMARK  186  A    between atoms: _446  and  _448
REMARK  187  A    between atoms: _448  and  _449
REMARK  188  A    between atoms: _451  and  _453
REMARK  189  A    between atoms: _453  and  _454
REMARK  190  A    between atoms: _453  and  _456
REMARK  191  A    between atoms: _456  and  _457
REMARK  192  A    between atoms: _463  and  _465
REMARK  193  A    between atoms: _465  and  _466
REMARK  194  A    between atoms: _465  and  _468
REMARK  195  A    between atoms: _468  and  _469
REMARK  196  A    between atoms: _472  and  _474
REMARK  197  A    between atoms: _474  and  _475
REMARK  198  A    between atoms: _474  and  _477
REMARK  199  A    between atoms: _480  and  _482
REMARK  200  A    between atoms: _482  and  _483
REMARK  201  A    between atoms: _482  and  _485
REMARK  202  A    between atoms: _485  and  _486
REMARK  203  A    between atoms: _489  and  _491
REMARK  204  A    between atoms: _491  and  _492
REMARK  205  A    between atoms: _491  and  _494
REMARK  206  A    between atoms: _494  and  _495
REMARK  207  A    between atoms: _499  and  _500
REMARK  208  A    between atoms: _505  and  _507
REMARK  209  A    between atoms: _507  and  _508
REMARK  210  A    between atoms: _507  and  _510
REMARK  211  A    between atoms: _513  and  _515
REMARK  212  A    between atoms: _515  and  _516
REMARK  213  A    between atoms: _515  and  _518
REMARK  214  A    between atoms: _518  and  _519
REMARK  215  A    between atoms: _524  and  _526
REMARK  216  A    between atoms: _526  and  _527
REMARK  217  A    between atoms: _526  and  _529
REMARK  218  A    between atoms: _529  and  _530
REMARK  219  A    between atoms: _533  and  _535
REMARK  220  A    between atoms: _535  and  _536
REMARK  221  A    between atoms: _535  and  _538
REMARK  222  A    between atoms: _538  and  _539
REMARK  223  A    between atoms: _542  and  _544
REMARK  224  A    between atoms: _544  and  _545
REMARK  225  A    between atoms: _547  and  _549
REMARK  226  A    between atoms: _549  and  _550
REMARK  227  A    between atoms: _549  and  _552
REMARK  228  A    between atoms: _552  and  _553
REMARK  229  A    between atoms: _553  and  _554
REMARK  230  A    between atoms: _554  and  _555
REMARK  231  A    between atoms: _564  and  _566
REMARK  232  A    between atoms: _566  and  _567
REMARK  233  A    between atoms: _566  and  _569
REMARK  234  A    between atoms: _569  and  _570
REMARK                            x       y       z     vdW  Elec       q    Type
REMARK                         _______ _______ _______ _____ _____    ______ ____
ROOT
ATOM      1  C   GLY A   5      12.205  18.341   9.276  0.00  0.00    +0.243 C 
ATOM      2  O   GLY A   5      12.416  17.689  10.309  0.00  0.00    -0.273 OA
ATOM      3  N   ILE A   6      11.365  19.385   9.220  0.00  0.00    -0.297 N 
ATOM      4  H   ILE A   6      11.140  19.827   8.306  0.00  0.00    +0.150 HD
ENDROOT
BRANCH   3   5
ATOM      5  CA  ILE A   6      10.773  19.893  10.439  0.00  0.00    +0.149 C 
BRANCH   5   6
ATOM      6  C   ILE A   6       9.847  18.872  11.166  0.00  0.00    +0.241 C 
ATOM      7  O   ILE A   6       9.858  18.881  12.401  0.00  0.00    -0.273 OA
ATOM      8  N   GLY A   7       9.147  17.989  10.441  0.00  0.00    -0.295 N 
ATOM      9  H   GLY A   7       9.256  18.008   9.407  0.00  0.00    +0.150 HD
BRANCH   8  10
ATOM     10  CA  GLY A   7       8.236  16.997  11.022  0.00  0.00    +0.176 C 
BRANCH  10  11
ATOM     11  C   GLY A   7       8.828  15.613  11.224  0.00  0.00    +0.243 C 
ATOM     12  O   GLY A   7       8.149  14.738  11.761  0.00  0.00    -0.273 OA
ATOM     13  N   GLY A   8      10.086  15.416  10.822  0.00  0.00    -0.295 N 
ATOM     14  H   GLY A   8      10.592  16.213  10.387  0.00  0.00    +0.150 HD
BRANCH  13  15
ATOM     15  CA  GLY A   8      10.794  14.139  10.959  0.00  0.00    +0.176 C 
BRANCH  15  16
ATOM     16  C   GLY A   8      11.521  13.682   9.703  0.00  0.00    +0.243 C 
ATOM     17  N   PHE A   9      12.031  12.416   9.705  0.00  0.00    -0.297 N 
ATOM     18  H   PHE A   9      11.897  11.853  10.569  0.00  0.00    +0.150 HD
ATOM     19  O   GLY A   8      11.632  14.453   8.746  0.00  0.00    -0.273 OA
BRANCH  17  20
ATOM     20  CA  PHE A   9      12.756  11.775   8.591  0.00  0.00    +0.153 C 
BRANCH  20  21
ATOM     21  C   PHE A   9      11.801  11.038   7.641  0.00  0.00    +0.241 C 
ATOM     22  O   PHE A   9      10.890  10.356   8.117  0.00  0.00    -0.273 OA
ATOM     23  N   ILE A  10      12.018  11.161   6.296  0.00  0.00    -0.298 N 
ATOM     24  H   ILE A  10      12.837  11.725   5.993  0.00  0.00    +0.150 HD
BRANCH  23  25
ATOM     25  CA  ILE A  10      11.176  10.552   5.235  0.00  0.00    +0.137 C 
BRANCH  25  26
ATOM     26  CB  ILE A  10      10.144  11.555   4.654  0.00  0.00    +0.026 C 
ATOM     27  CG2 ILE A  10       9.130  11.994   5.716  0.00  0.00    +0.002 C 
BRANCH  26  28
ATOM     28  CG1 ILE A  10      10.825  12.756   3.958  0.00  0.00    +0.002 C 
ATOM     29  CD1 ILE A  10      10.403  12.971   2.489  0.00  0.00    +0.000 C 
ENDBRANCH  26  28
ENDBRANCH  25  26
BRANCH  25  30
ATOM     30  C   ILE A  10      11.977   9.889   4.094  0.00  0.00    +0.227 C 
ATOM     31  O   ILE A  10      13.097  10.312   3.824  0.00  0.00    -0.286 OA
ENDBRANCH  25  30
ENDBRANCH  23  25
ENDBRANCH  20  21
BRANCH  20  32
ATOM     32  CB  PHE A   9      13.838  10.809   9.121  0.00  0.00    +0.055 C 
BRANCH  32  33
ATOM     33  CG  PHE A   9      15.109  11.478   9.589  0.00  0.00    -0.020 A 
ATOM     34  CD2 PHE A   9      15.199  12.025  10.864  0.00  0.00    -0.004 A 
ATOM     35  CE2 PHE A   9      16.372  12.658  11.292  0.00  0.00    -0.000 A 
ATOM     36  CZ  PHE A   9      17.462  12.734  10.450  0.00  0.00    -0.000 A 
ATOM     37  CE1 PHE A   9      17.397  12.178   9.189  0.00  0.00    -0.000 A 
ATOM     38  CD1 PHE A   9      16.224  11.546   8.761  0.00  0.00    -0.004 A 
ENDBRANCH  32  33
ENDBRANCH  20  32
ENDBRANCH  17  20
ENDBRANCH  15  16
ENDBRANCH  13  15
ENDBRANCH  10  11
ENDBRANCH   8  10
ENDBRANCH   5   6
BRANCH   5  39
ATOM     39  CB  ILE A   6      10.124  21.292  10.263  0.00  0.00    +0.027 C 
ATOM     40  CG2 ILE A   6       8.611  21.271   9.946  0.00  0.00    +0.002 C 
BRANCH  39  41
ATOM     41  CG1 ILE A   6      10.447  22.101  11.522  0.00  0.00    +0.002 C 
ATOM     42  CD1 ILE A   6      10.505  23.569  11.375  0.00  0.00    +0.000 C 
ENDBRANCH  39  41
ENDBRANCH   5  39
ENDBRANCH   3   5
BRANCH   1  43
ATOM     43  CA  GLY A   5      12.807  17.898   7.972  0.00  0.00    +0.176 C 
BRANCH  43  45
ATOM     44  C   GLY A   4      14.572  16.223   7.784  0.00  0.00    +0.243 C 
ATOM     45  N   GLY A   5      13.323  16.540   8.074  0.00  0.00    -0.295 N 
ATOM     46  H   GLY A   5      12.679  15.786   8.389  0.00  0.00    +0.150 HD
ATOM     47  O   GLY A   4      15.389  17.011   7.321  0.00  0.00    -0.273 OA
BRANCH  44  48
ATOM     48  CA  GLY A   4      14.946  14.768   7.952  0.00  0.00    +0.176 C 
BRANCH  48  50
ATOM     49  C   ILE A   3      14.966  13.559   5.830  0.00  0.00    +0.241 C 
ATOM     50  N   GLY A   4      15.610  14.247   6.761  0.00  0.00    -0.295 N 
ATOM     51  H   GLY A   4      16.628  14.423   6.639  0.00  0.00    +0.150 HD
ATOM     52  O   ILE A   3      13.761  13.290   5.877  0.00  0.00    -0.273 OA
BRANCH  49  53
ATOM     53  CA  ILE A   3      15.819  13.079   4.661  0.00  0.00    +0.149 C 
BRANCH  53  56
ATOM     54  C   MET A   2      16.524  10.756   4.484  0.00  0.00    +0.241 C 
ATOM     55  O   MET A   2      17.709  11.044   4.652  0.00  0.00    -0.273 OA
ATOM     56  N   ILE A   3      15.557  11.659   4.414  0.00  0.00    -0.297 N 
ATOM     57  H   ILE A   3      14.591  11.353   4.179  0.00  0.00    +0.150 HD
BRANCH  54  58
ATOM     58  CA  MET A   2      16.119   9.307   4.308  0.00  0.00    +0.149 C 
BRANCH  58  60
ATOM     59  C   LYS A   1      16.635   8.368   2.088  0.00  0.00    +0.238 C 
ATOM     60  N   MET A   2      17.011   8.757   3.311  0.00  0.00    -0.297 N 
ATOM     61  H   MET A   2      18.015   8.657   3.563  0.00  0.00    +0.150 HD
ATOM     62  O   LYS A   1      15.477   8.377   1.686  0.00  0.00    -0.274 OA
BRANCH  59  63
ATOM     63  CA  LYS A   1      17.745   7.899   1.186  0.00  0.00    +0.145 C 
BRANCH  63  64
ATOM     64  N   LYS A   1      17.255   6.841   0.299  0.00  0.00    -0.238 NA
ATOM     65  H   LYS A   1      16.256   6.838   0.009  0.00  0.00    +0.142 HD
ENDBRANCH  63  64
BRANCH  63  66
ATOM     66  CB  LYS A   1      18.308   9.098   0.414  0.00  0.00    +0.026 C 
BRANCH  66  67
ATOM     67  CG  LYS A   1      19.210  10.012   1.290  0.00  0.00    -0.000 C 
BRANCH  67  68
ATOM     68  CD  LYS A   1      19.941  11.068   0.515  0.00  0.00    -0.024 C 
BRANCH  68  69
ATOM     69  CE  LYS A   1      20.612  12.052   1.441  0.00  0.00    -0.086 C 
BRANCH  69  70
ATOM     70  NZ  LYS A   1      21.883  11.521   2.045  0.00  0.00    +0.380 N 
ATOM     71  HZ1 LYS A   1      22.296  12.242   2.670  0.00  0.00    -0.089 HD
ATOM     72  HZ2 LYS A   1      21.672  10.663   2.594  0.00  0.00    -0.089 HD
ATOM     73  HZ3 LYS A   1      22.556  11.292   1.286  0.00  0.00    -0.089 HD
ENDBRANCH  69  70
ENDBRANCH  68  69
ENDBRANCH  67  68
ENDBRANCH  66  67
ENDBRANCH  63  66
ENDBRANCH  59  63
ENDBRANCH  58  60
BRANCH  58  74
ATOM     74  CB  MET A   2      16.278   8.569   5.655  0.00  0.00    +0.041 C 
BRANCH  74  75
ATOM     75  CG  MET A   2      15.854   7.110   5.621  0.00  0.00    +0.060 C 
BRANCH  75  76
ATOM     76  SD  MET A   2      14.064   6.919   5.667  0.00  0.00    -0.139 S 
ATOM     77  CE  MET A   2      13.746   7.098   7.427  0.00  0.00    +0.069 C 
ENDBRANCH  75  76
ENDBRANCH  74  75
ENDBRANCH  58  74
ENDBRANCH  54  58
ENDBRANCH  53  56
BRANCH  53  78
ATOM     78  CB  ILE A   3      15.732  13.987   3.412  0.00  0.00    +0.027 C 
ATOM     79  CG2 ILE A   3      16.942  13.737   2.495  0.00  0.00    +0.002 C 
BRANCH  78  80
ATOM     80  CG1 ILE A   3      14.394  13.824   2.678  0.00  0.00    +0.002 C 
ATOM     81  CD1 ILE A   3      14.092  14.853   1.627  0.00  0.00    +0.000 C 
ENDBRANCH  78  80
ENDBRANCH  53  78
ENDBRANCH  49  53
ENDBRANCH  48  50
ENDBRANCH  44  48
ENDBRANCH  43  45
ENDBRANCH   1  43
TORSDOF 36
REMARK  Name = ../refined-set-2016/4mc2/4mc2_pocket.pdb
REMARK  234 active torsions:
REMARK  status: ('A' for Active; 'I' for Inactive)
REMARK    1  A    between atoms: _1  and  _3
REMARK    2  A    between atoms: _3  and  _4
REMARK    3  A    between atoms: _3  and  _6
REMARK    4  A    between atoms: _6  and  _7
REMARK    5  A    between atoms: _7  and  _8
REMARK    6  A    between atoms: _8  and  _9
REMARK    7  A    between atoms: _18  and  _20
REMARK    8  A    between atoms: _20  and  _21
REMARK    9  A    between atoms: _20  and  _23
REMARK   10  A    between atoms: _23  and  _24
REMARK   11  A    between atoms: _27  and  _29
REMARK   12  A    between atoms: _29  and  _30
REMARK   13  A    between atoms: _29  and  _32
REMARK   14  A    between atoms: _32  and  _33
REMARK   15  A    between atoms: _36  and  _38
REMARK   16  A    between atoms: _38  and  _39
REMARK   17  A    between atoms: _38  and  _41
REMARK   18  A    between atoms: _41  and  _42
REMARK   19  A    between atoms: _45  and  _47
REMARK   20  A    between atoms: _47  and  _48
REMARK   21  A    between atoms: _47  and  _50
REMARK   22  A    between atoms: _50  and  _51
REMARK   23  A    between atoms: _54  and  _56
REMARK   24  A    between atoms: _56  and  _57
REMARK   25  A    between atoms: _59  and  _61
REMARK   26  A    between atoms: _61  and  _62
REMARK   27  A    between atoms: _65  and  _67
REMARK   28  A    between atoms: _67  and  _68
REMARK   29  A    between atoms: _67  and  _70
REMARK   30  A    between atoms: _70  and  _71
REMARK   31  A    between atoms: _74  and  _76
REMARK   32  A    between atoms: _76  and  _77
REMARK   33  A    between atoms: _76  and  _79
REMARK   34  A    between atoms: _79  and  _80
REMARK   35  A    between atoms: _83  and  _85
REMARK   36  A    between atoms: _85  and  _86
REMARK   37  A    between atoms: _85  and  _88
REMARK   38  A    between atoms: _88  and  _89
REMARK   39  A    between atoms: _92  and  _94
REMARK   40  A    between atoms: _94  and  _95
REMARK   41  A    between atoms: _94  and  _97
REMARK   42  A    between atoms: _100  and  _102
REMARK   43  A    between atoms: _102  and  _103
REMARK   44  A    between atoms: _102  and  _105
REMARK   45  A    between atoms: _105  and  _106
REMARK   46  A    between atoms: _106  and  _107
REMARK   47  A    between atoms: _107  and  _108
REMARK   48  A    between atoms: _108  and  _109
REMARK   49  A    between atoms: _113  and  _115
REMARK   50  A    between atoms: _115  and  _116
REMARK   51  A    between atoms: _115  and  _118
REMARK   52  A    between atoms: _118  and  _119
REMARK   53  A    between atoms: _119  and  _120
REMARK   54  A    between atoms: _122  and  _124
REMARK   55  A    between atoms: _124  and  _125
REMARK   56  A    between atoms: _124  and  _127
REMARK   57  A    between atoms: _127  and  _128
REMARK   58  A    between atoms: _131  and  _133
REMARK   59  A    between atoms: _133  and  _134
REMARK   60  A    between atoms: _136  and  _138
REMARK   61  A    between atoms: _138  and  _139
REMARK   62  A    between atoms: _141  and  _143
REMARK   63  A    between atoms: _143  and  _144
REMARK   64  A    between atoms: _143  and  _146
REMARK   65  A    between atoms: _146  and  _147
REMARK   66  A    between atoms: _150  and  _152
REMARK   67  A    between atoms: _152  and  _153
REMARK   68  A    between atoms: _155  and  _157
REMARK   69  A    between atoms: _157  and  _158
REMARK   70  A    between atoms: _160  and  _162
REMARK   71  A    between atoms: _162  and  _163
REMARK   72  A    between atoms: _162  and  _165
REMARK   73  A    between atoms: _165  and  _166
REMARK   74  A    between atoms: _172  and  _174
REMARK   75  A    between atoms: _174  and  _175
REMARK   76  A    between atoms: _174  and  _177
REMARK   77  A    between atoms: _177  and  _178
REMARK   78  A    between atoms: _181  and  _183
REMARK   79  A    between atoms: _183  and  _184
REMARK   80  A    between atoms: _183  and  _186
REMARK   81  A    between atoms: _186  and  _187
REMARK   82  A    between atoms: _191  and  _192
REMARK   83  A    between atoms: _197  and  _199
REMARK   84  A    between atoms: _199  and  _200
REMARK   85  A    between atoms: _199  and  _202
REMARK   86  A    between atoms: _202  and  _203
REMARK   87  A    between atoms: _207  and  _208
REMARK   88  A    between atoms: _213  and  _215
REMARK   89  A    between atoms: _215  and  _216
REMARK   90  A    between atoms: _215  and  _218
REMARK   91  A    between atoms: _221  and  _223
REMARK   92  A    between atoms: _223  and  _224
REMARK   93  A    between atoms: _223  and  _226
REMARK   94  A    between atoms: _226  and  _227
REMARK   95  A    between atoms: _232  and  _234
REMARK   96  A    between atoms: _234  and  _235
REMARK   97  A    between atoms: _234  and  _237
REMARK   98  A    between atoms: _237  and  _238
REMARK   99  A    between atoms: _241  and  _243
REMARK  100  A    between atoms: _243  and  _244
REMARK  101  A    between atoms: _243  and  _246
REMARK  102  A    between atoms: _246  and  _247
REMARK  103  A    between atoms: _250  and  _252
REMARK  104  A    between atoms: _252  and  _253
REMARK  105  A    between atoms: _255  and  _257
REMARK  106  A    between atoms: _257  and  _258
REMARK  107  A    between atoms: _257  and  _260
REMARK  108  A    between atoms: _260  and  _261
REMARK  109  A    between atoms: _261  and  _262
REMARK  110  A    between atoms: _262  and  _263
REMARK  111  A    between atoms: _272  and  _274
REMARK  112  A    between atoms: _274  and  _275
REMARK  113  A    between atoms: _274  and  _277
REMARK  114  A    between atoms: _277  and  _278
REMARK  115  A    between atoms: _283  and  _285
REMARK  116  A    between atoms: _285  and  _286
REMARK  117  A    between atoms: _285  and  _288
REMARK  118  A    between atoms: _288  and  _289
REMARK  119  A    between atoms: _289  and  _290
REMARK  120  A    between atoms: _290  and  _291
REMARK  121  A    between atoms: _300  and  _302
REMARK  122  A    between atoms: _302  and  _303
REMARK  123  A    between atoms: _302  and  _305
REMARK  124  A    between atoms: _305  and  _306
REMARK  125  A    between atoms: _309  and  _311
REMARK  126  A    between atoms: _311  and  _312
REMARK  127  A    between atoms: _311  and  _314
REMARK  128  A    between atoms: _314  and  _315
REMARK  129  A    between atoms: _318  and  _320
REMARK  130  A    between atoms: _320  and  _321
REMARK  131  A    between atoms: _320  and  _323
REMARK  132  A    between atoms: _323  and  _324
REMARK  133  A    between atoms: _327  and  _329
REMARK  134  A    between atoms: _329  and  _330
REMARK  135  A    between atoms: _329  and  _332
REMARK  136  A    between atoms: _332  and  _333
REMARK  137  A    between atoms: _336  and  _338
REMARK  138  A    between atoms: _338  and  _339
REMARK  139  A    between atoms: _341  and  _343
REMARK  140  A    between atoms: _343  and  _344
REMARK  141  A    between atoms: _347  and  _349
REMARK  142  A    between atoms: _349  and  _350
REMARK  143  A    between atoms: _349  and  _352
REMARK  144  A    between atoms: _352  and  _353
REMARK  145  A    between atoms: _356  and  _358
REMARK  146  A    between atoms: _358  and  _359
REMARK  147  A    between atoms: _358  and  _361
REMARK  148  A    between atoms: _361  and  _362
REMARK  149  A    between atoms: _365  and  _367
REMARK  150  A    between atoms: _367  and  _368
REMARK  151  A    between atoms: _367  and  _370
REMARK  152  A    between atoms: _370  and  _371
REMARK  153  A    between atoms: _374  and  _376
REMARK  154  A    between atoms: _376  and  _377
REMARK  155  A    between atoms: _376  and  _379
REMARK  156  A    between atoms: _382  and  _384
REMARK  157  A    between atoms: _384  and  _385
REMARK  158  A    between atoms: _384  and  _387
REMARK  159  A    between atoms: _387  and  _388
REMARK  160  A    between atoms: _391  and  _393
REMARK  161  A    between atoms: _393  and  _394
REMARK  162  A    between atoms: _393  and  _396
REMARK  163  A    between atoms: _396  and  _397
REMARK  164  A    between atoms: _397  and  _398
REMARK  165  A    between atoms: _398  and  _399
REMARK  166  A    between atoms: _399  and  _400
REMARK  167  A    between atoms: _404  and  _406
REMARK  168  A    between atoms: _406  and  _407
REMARK  169  A    between atoms: _406  and  _409
REMARK  170  A    between atoms: _409  and  _410
REMARK  171  A    between atoms: _410  and  _411
REMARK  172  A    between atoms: _413  and  _415
REMARK  173  A    between atoms: _415  and  _416
REMARK  174  A    between atoms: _415  and  _418
REMARK  175  A    between atoms: _418  and  _419
REMARK  176  A    between atoms: _422  and  _424
REMARK  177  A    between atoms: _424  and  _425
REMARK  178  A    between atoms: _427  and  _429
REMARK  179  A    between atoms: _429  and  _430
REMARK  180  A    between atoms: _432  and  _434
REMARK  181  A    between atoms: _434  and  _435
REMARK  182  A    between atoms: _434  and  _437
REMARK  183  A    between atoms: _437  and  _438
REMARK  184  A    between atoms: _441  and  _443
REMARK  185  A    between atoms: _443  and  _444
REMARK  186  A    between atoms: _446  and  _448
REMARK  187  A    between atoms: _448  and  _449
REMARK  188  A    between atoms: _451  and  _453
REMARK  189  A    between atoms: _453  and  _454
REMARK  190  A    between atoms: _453  and  _456
REMARK  191  A    between atoms: _456  and  _457
REMARK  192  A    between atoms: _463  and  _465
REMARK  193  A    between atoms: _465  and  _466
REMARK  194  A    between atoms: _465  and  _468
REMARK  195  A    between atoms: _468  and  _469
REMARK  196  A    between atoms: _472  and  _474
REMARK  197  A    between atoms: _474  and  _475
REMARK  198  A    between atoms: _474  and  _477
REMARK  199  A    between atoms: _480  and  _482
REMARK  200  A    between atoms: _482  and  _483
REMARK  201  A    between atoms: _482  and  _485
REMARK  202  A    between atoms: _485  and  _486
REMARK  203  A    between atoms: _489  and  _491
REMARK  204  A    between atoms: _491  and  _492
REMARK  205  A    between atoms: _491  and  _494
REMARK  206  A    between atoms: _494  and  _495
REMARK  207  A    between atoms: _499  and  _500
REMARK  208  A    between atoms: _505  and  _507
REMARK  209  A    between atoms: _507  and  _508
REMARK  210  A    between atoms: _507  and  _510
REMARK  211  A    between atoms: _513  and  _515
REMARK  212  A    between atoms: _515  and  _516
REMARK  213  A    between atoms: _515  and  _518
REMARK  214  A    between atoms: _518  and  _519
REMARK  215  A    between atoms: _524  and  _526
REMARK  216  A    between atoms: _526  and  _527
REMARK  217  A    between atoms: _526  and  _529
REMARK  218  A    between atoms: _529  and  _530
REMARK  219  A    between atoms: _533  and  _535
REMARK  220  A    between atoms: _535  and  _536
REMARK  221  A    between atoms: _535  and  _538
REMARK  222  A    between atoms: _538  and  _539
REMARK  223  A    between atoms: _542  and  _544
REMARK  224  A    between atoms: _544  and  _545
REMARK  225  A    between atoms: _547  and  _549
REMARK  226  A    between atoms: _549  and  _550
REMARK  227  A    between atoms: _549  and  _552
REMARK  228  A    between atoms: _552  and  _553
REMARK  229  A    between atoms: _553  and  _554
REMARK  230  A    between atoms: _554  and  _555
REMARK  231  A    between atoms: _564  and  _566
REMARK  232  A    between atoms: _566  and  _567
REMARK  233  A    between atoms: _566  and  _569
REMARK  234  A    between atoms: _569  and  _570
REMARK                            x       y       z     vdW  Elec       q    Type
REMARK                         _______ _______ _______ _____ _____    ______ ____
ROOT
ATOM      1  CA  VAL A   1      13.091   9.455  -1.138  0.00  0.00    +0.133 C 
ENDROOT
BRANCH   1   2
ATOM      2  CB  VAL A   1      13.629  10.918  -1.142  0.00  0.00    +0.023 C 
ATOM      3  CG2 VAL A   1      12.726  11.848  -0.345  0.00  0.00    +0.002 C 
ATOM      4  CG1 VAL A   1      15.064  10.979  -0.629  0.00  0.00    +0.002 C 
ENDBRANCH   1   2
BRANCH   1   5
ATOM      5  N   VAL A   1      13.037   8.874   0.205  0.00  0.00    -0.239 NA
ATOM      6  H   VAL A   1      13.912   8.508   0.632  0.00  0.00    +0.142 HD
ENDBRANCH   1   5
BRANCH   1   7
ATOM      7  C   VAL A   1      13.936   8.558  -2.039  0.00  0.00    +0.224 C 
ATOM      8  O   VAL A   1      14.680   7.702  -1.529  0.00  0.00    -0.287 OA
ENDBRANCH   1   7
TORSDOF 3
REMARK  Name = ../refined-set-2016/4mc2/4mc2_pocket.pdb
REMARK  234 active torsions:
REMARK  status: ('A' for Active; 'I' for Inactive)
REMARK    1  A    between atoms: _1  and  _3
REMARK    2  A    between atoms: _3  and  _4
REMARK    3  A    between atoms: _3  and  _6
REMARK    4  A    between atoms: _6  and  _7
REMARK    5  A    between atoms: _7  and  _8
REMARK    6  A    between atoms: _8  and  _9
REMARK    7  A    between atoms: _18  and  _20
REMARK    8  A    between atoms: _20  and  _21
REMARK    9  A    between atoms: _20  and  _23
REMARK   10  A    between atoms: _23  and  _24
REMARK   11  A    between atoms: _27  and  _29
REMARK   12  A    between atoms: _29  and  _30
REMARK   13  A    between atoms: _29  and  _32
REMARK   14  A    between atoms: _32  and  _33
REMARK   15  A    between atoms: _36  and  _38
REMARK   16  A    between atoms: _38  and  _39
REMARK   17  A    between atoms: _38  and  _41
REMARK   18  A    between atoms: _41  and  _42
REMARK   19  A    between atoms: _45  and  _47
REMARK   20  A    between atoms: _47  and  _48
REMARK   21  A    between atoms: _47  and  _50
REMARK   22  A    between atoms: _50  and  _51
REMARK   23  A    between atoms: _54  and  _56
REMARK   24  A    between atoms: _56  and  _57
REMARK   25  A    between atoms: _59  and  _61
REMARK   26  A    between atoms: _61  and  _62
REMARK   27  A    between atoms: _65  and  _67
REMARK   28  A    between atoms: _67  and  _68
REMARK   29  A    between atoms: _67  and  _70
REMARK   30  A    between atoms: _70  and  _71
REMARK   31  A    between atoms: _74  and  _76
REMARK   32  A    between atoms: _76  and  _77
REMARK   33  A    between atoms: _76  and  _79
REMARK   34  A    between atoms: _79  and  _80
REMARK   35  A    between atoms: _83  and  _85
REMARK   36  A    between atoms: _85  and  _86
REMARK   37  A    between atoms: _85  and  _88
REMARK   38  A    between atoms: _88  and  _89
REMARK   39  A    between atoms: _92  and  _94
REMARK   40  A    between atoms: _94  and  _95
REMARK   41  A    between atoms: _94  and  _97
REMARK   42  A    between atoms: _100  and  _102
REMARK   43  A    between atoms: _102  and  _103
REMARK   44  A    between atoms: _102  and  _105
REMARK   45  A    between atoms: _105  and  _106
REMARK   46  A    between atoms: _106  and  _107
REMARK   47  A    between atoms: _107  and  _108
REMARK   48  A    between atoms: _108  and  _109
REMARK   49  A    between atoms: _113  and  _115
REMARK   50  A    between atoms: _115  and  _116
REMARK   51  A    between atoms: _115  and  _118
REMARK   52  A    between atoms: _118  and  _119
REMARK   53  A    between atoms: _119  and  _120
REMARK   54  A    between atoms: _122  and  _124
REMARK   55  A    between atoms: _124  and  _125
REMARK   56  A    between atoms: _124  and  _127
REMARK   57  A    between atoms: _127  and  _128
REMARK   58  A    between atoms: _131  and  _133
REMARK   59  A    between atoms: _133  and  _134
REMARK   60  A    between atoms: _136  and  _138
REMARK   61  A    between atoms: _138  and  _139
REMARK   62  A    between atoms: _141  and  _143
REMARK   63  A    between atoms: _143  and  _144
REMARK   64  A    between atoms: _143  and  _146
REMARK   65  A    between atoms: _146  and  _147
REMARK   66  A    between atoms: _150  and  _152
REMARK   67  A    between atoms: _152  and  _153
REMARK   68  A    between atoms: _155  and  _157
REMARK   69  A    between atoms: _157  and  _158
REMARK   70  A    between atoms: _160  and  _162
REMARK   71  A    between atoms: _162  and  _163
REMARK   72  A    between atoms: _162  and  _165
REMARK   73  A    between atoms: _165  and  _166
REMARK   74  A    between atoms: _172  and  _174
REMARK   75  A    between atoms: _174  and  _175
REMARK   76  A    between atoms: _174  and  _177
REMARK   77  A    between atoms: _177  and  _178
REMARK   78  A    between atoms: _181  and  _183
REMARK   79  A    between atoms: _183  and  _184
REMARK   80  A    between atoms: _183  and  _186
REMARK   81  A    between atoms: _186  and  _187
REMARK   82  A    between atoms: _191  and  _192
REMARK   83  A    between atoms: _197  and  _199
REMARK   84  A    between atoms: _199  and  _200
REMARK   85  A    between atoms: _199  and  _202
REMARK   86  A    between atoms: _202  and  _203
REMARK   87  A    between atoms: _207  and  _208
REMARK   88  A    between atoms: _213  and  _215
REMARK   89  A    between atoms: _215  and  _216
REMARK   90  A    between atoms: _215  and  _218
REMARK   91  A    between atoms: _221  and  _223
REMARK   92  A    between atoms: _223  and  _224
REMARK   93  A    between atoms: _223  and  _226
REMARK   94  A    between atoms: _226  and  _227
REMARK   95  A    between atoms: _232  and  _234
REMARK   96  A    between atoms: _234  and  _235
REMARK   97  A    between atoms: _234  and  _237
REMARK   98  A    between atoms: _237  and  _238
REMARK   99  A    between atoms: _241  and  _243
REMARK  100  A    between atoms: _243  and  _244
REMARK  101  A    between atoms: _243  and  _246
REMARK  102  A    between atoms: _246  and  _247
REMARK  103  A    between atoms: _250  and  _252
REMARK  104  A    between atoms: _252  and  _253
REMARK  105  A    between atoms: _255  and  _257
REMARK  106  A    between atoms: _257  and  _258
REMARK  107  A    between atoms: _257  and  _260
REMARK  108  A    between atoms: _260  and  _261
REMARK  109  A    between atoms: _261  and  _262
REMARK  110  A    between atoms: _262  and  _263
REMARK  111  A    between atoms: _272  and  _274
REMARK  112  A    between atoms: _274  and  _275
REMARK  113  A    between atoms: _274  and  _277
REMARK  114  A    between atoms: _277  and  _278
REMARK  115  A    between atoms: _283  and  _285
REMARK  116  A    between atoms: _285  and  _286
REMARK  117  A    between atoms: _285  and  _288
REMARK  118  A    between atoms: _288  and  _289
REMARK  119  A    between atoms: _289  and  _290
REMARK  120  A    between atoms: _290  and  _291
REMARK  121  A    between atoms: _300  and  _302
REMARK  122  A    between atoms: _302  and  _303
REMARK  123  A    between atoms: _302  and  _305
REMARK  124  A    between atoms: _305  and  _306
REMARK  125  A    between atoms: _309  and  _311
REMARK  126  A    between atoms: _311  and  _312
REMARK  127  A    between atoms: _311  and  _314
REMARK  128  A    between atoms: _314  and  _315
REMARK  129  A    between atoms: _318  and  _320
REMARK  130  A    between atoms: _320  and  _321
REMARK  131  A    between atoms: _320  and  _323
REMARK  132  A    between atoms: _323  and  _324
REMARK  133  A    between atoms: _327  and  _329
REMARK  134  A    between atoms: _329  and  _330
REMARK  135  A    between atoms: _329  and  _332
REMARK  136  A    between atoms: _332  and  _333
REMARK  137  A    between atoms: _336  and  _338
REMARK  138  A    between atoms: _338  and  _339
REMARK  139  A    between atoms: _341  and  _343
REMARK  140  A    between atoms: _343  and  _344
REMARK  141  A    between atoms: _347  and  _349
REMARK  142  A    between atoms: _349  and  _350
REMARK  143  A    between atoms: _349  and  _352
REMARK  144  A    between atoms: _352  and  _353
REMARK  145  A    between atoms: _356  and  _358
REMARK  146  A    between atoms: _358  and  _359
REMARK  147  A    between atoms: _358  and  _361
REMARK  148  A    between atoms: _361  and  _362
REMARK  149  A    between atoms: _365  and  _367
REMARK  150  A    between atoms: _367  and  _368
REMARK  151  A    between atoms: _367  and  _370
REMARK  152  A    between atoms: _370  and  _371
REMARK  153  A    between atoms: _374  and  _376
REMARK  154  A    between atoms: _376  and  _377
REMARK  155  A    between atoms: _376  and  _379
REMARK  156  A    between atoms: _382  and  _384
REMARK  157  A    between atoms: _384  and  _385
REMARK  158  A    between atoms: _384  and  _387
REMARK  159  A    between atoms: _387  and  _388
REMARK  160  A    between atoms: _391  and  _393
REMARK  161  A    between atoms: _393  and  _394
REMARK  162  A    between atoms: _393  and  _396
REMARK  163  A    between atoms: _396  and  _397
REMARK  164  A    between atoms: _397  and  _398
REMARK  165  A    between atoms: _398  and  _399
REMARK  166  A    between atoms: _399  and  _400
REMARK  167  A    between atoms: _404  and  _406
REMARK  168  A    between atoms: _406  and  _407
REMARK  169  A    between atoms: _406  and  _409
REMARK  170  A    between atoms: _409  and  _410
REMARK  171  A    between atoms: _410  and  _411
REMARK  172  A    between atoms: _413  and  _415
REMARK  173  A    between atoms: _415  and  _416
REMARK  174  A    between atoms: _415  and  _418
REMARK  175  A    between atoms: _418  and  _419
REMARK  176  A    between atoms: _422  and  _424
REMARK  177  A    between atoms: _424  and  _425
REMARK  178  A    between atoms: _427  and  _429
REMARK  179  A    between atoms: _429  and  _430
REMARK  180  A    between atoms: _432  and  _434
REMARK  181  A    between atoms: _434  and  _435
REMARK  182  A    between atoms: _434  and  _437
REMARK  183  A    between atoms: _437  and  _438
REMARK  184  A    between atoms: _441  and  _443
REMARK  185  A    between atoms: _443  and  _444
REMARK  186  A    between atoms: _446  and  _448
REMARK  187  A    between atoms: _448  and  _449
REMARK  188  A    between atoms: _451  and  _453
REMARK  189  A    between atoms: _453  and  _454
REMARK  190  A    between atoms: _453  and  _456
REMARK  191  A    between atoms: _456  and  _457
REMARK  192  A    between atoms: _463  and  _465
REMARK  193  A    between atoms: _465  and  _466
REMARK  194  A    between atoms: _465  and  _468
REMARK  195  A    between atoms: _468  and  _469
REMARK  196  A    between atoms: _472  and  _474
REMARK  197  A    between atoms: _474  and  _475
REMARK  198  A    between atoms: _474  and  _477
REMARK  199  A    between atoms: _480  and  _482
REMARK  200  A    between atoms: _482  and  _483
REMARK  201  A    between atoms: _482  and  _485
REMARK  202  A    between atoms: _485  and  _486
REMARK  203  A    between atoms: _489  and  _491
REMARK  204  A    between atoms: _491  and  _492
REMARK  205  A    between atoms: _491  and  _494
REMARK  206  A    between atoms: _494  and  _495
REMARK  207  A    between atoms: _499  and  _500
REMARK  208  A    between atoms: _505  and  _507
REMARK  209  A    between atoms: _507  and  _508
REMARK  210  A    between atoms: _507  and  _510
REMARK  211  A    between atoms: _513  and  _515
REMARK  212  A    between atoms: _515  and  _516
REMARK  213  A    between atoms: _515  and  _518
REMARK  214  A    between atoms: _518  and  _519
REMARK  215  A    between atoms: _524  and  _526
REMARK  216  A    between atoms: _526  and  _527
REMARK  217  A    between atoms: _526  and  _529
REMARK  218  A    between atoms: _529  and  _530
REMARK  219  A    between atoms: _533  and  _535
REMARK  220  A    between atoms: _535  and  _536
REMARK  221  A    between atoms: _535  and  _538
REMARK  222  A    between atoms: _538  and  _539
REMARK  223  A    between atoms: _542  and  _544
REMARK  224  A    between atoms: _544  and  _545
REMARK  225  A    between atoms: _547  and  _549
REMARK  226  A    between atoms: _549  and  _550
REMARK  227  A    between atoms: _549  and  _552
REMARK  228  A    between atoms: _552  and  _553
REMARK  229  A    between atoms: _553  and  _554
REMARK  230  A    between atoms: _554  and  _555
REMARK  231  A    between atoms: _564  and  _566
REMARK  232  A    between atoms: _566  and  _567
REMARK  233  A    between atoms: _566  and  _569
REMARK  234  A    between atoms: _569  and  _570
REMARK                            x       y       z     vdW  Elec       q    Type
REMARK                         _______ _______ _______ _____ _____    ______ ____
ROOT
ATOM      1  CA  LEU A   1      16.137  13.251  -4.703  0.00  0.00    +0.133 C 
ENDROOT
BRANCH   1   2
ATOM      2  N   LEU A   1      16.972  14.152  -5.490  0.00  0.00    -0.239 NA
ATOM      3  H   LEU A   1      17.051  15.145  -5.193  0.00  0.00    +0.142 HD
ENDBRANCH   1   2
BRANCH   1   4
ATOM      4  C   LEU A   1      14.694  13.434  -5.159  0.00  0.00    +0.224 C 
ATOM      5  O   LEU A   1      14.264  14.559  -5.411  0.00  0.00    -0.287 OA
ENDBRANCH   1   4
BRANCH   1   6
ATOM      6  CB  LEU A   1      16.258  13.539  -3.203  0.00  0.00    +0.025 C 
BRANCH   6   7
ATOM      7  CG  LEU A   1      17.690  13.629  -2.641  0.00  0.00    +0.002 C 
ATOM      8  CD2 LEU A   1      17.654  13.890  -1.145  0.00  0.00    +0.000 C 
ATOM      9  CD1 LEU A   1      18.473  12.370  -2.898  0.00  0.00    +0.000 C 
ENDBRANCH   6   7
ENDBRANCH   1   6
TORSDOF 4
REMARK  Name = ../refined-set-2016/4mc2/4mc2_pocket.pdb
REMARK  234 active torsions:
REMARK  status: ('A' for Active; 'I' for Inactive)
REMARK    1  A    between atoms: _1  and  _3
REMARK    2  A    between atoms: _3  and  _4
REMARK    3  A    between atoms: _3  and  _6
REMARK    4  A    between atoms: _6  and  _7
REMARK    5  A    between atoms: _7  and  _8
REMARK    6  A    between atoms: _8  and  _9
REMARK    7  A    between atoms: _18  and  _20
REMARK    8  A    between atoms: _20  and  _21
REMARK    9  A    between atoms: _20  and  _23
REMARK   10  A    between atoms: _23  and  _24
REMARK   11  A    between atoms: _27  and  _29
REMARK   12  A    between atoms: _29  and  _30
REMARK   13  A    between atoms: _29  and  _32
REMARK   14  A    between atoms: _32  and  _33
REMARK   15  A    between atoms: _36  and  _38
REMARK   16  A    between atoms: _38  and  _39
REMARK   17  A    between atoms: _38  and  _41
REMARK   18  A    between atoms: _41  and  _42
REMARK   19  A    between atoms: _45  and  _47
REMARK   20  A    between atoms: _47  and  _48
REMARK   21  A    between atoms: _47  and  _50
REMARK   22  A    between atoms: _50  and  _51
REMARK   23  A    between atoms: _54  and  _56
REMARK   24  A    between atoms: _56  and  _57
REMARK   25  A    between atoms: _59  and  _61
REMARK   26  A    between atoms: _61  and  _62
REMARK   27  A    between atoms: _65  and  _67
REMARK   28  A    between atoms: _67  and  _68
REMARK   29  A    between atoms: _67  and  _70
REMARK   30  A    between atoms: _70  and  _71
REMARK   31  A    between atoms: _74  and  _76
REMARK   32  A    between atoms: _76  and  _77
REMARK   33  A    between atoms: _76  and  _79
REMARK   34  A    between atoms: _79  and  _80
REMARK   35  A    between atoms: _83  and  _85
REMARK   36  A    between atoms: _85  and  _86
REMARK   37  A    between atoms: _85  and  _88
REMARK   38  A    between atoms: _88  and  _89
REMARK   39  A    between atoms: _92  and  _94
REMARK   40  A    between atoms: _94  and  _95
REMARK   41  A    between atoms: _94  and  _97
REMARK   42  A    between atoms: _100  and  _102
REMARK   43  A    between atoms: _102  and  _103
REMARK   44  A    between atoms: _102  and  _105
REMARK   45  A    between atoms: _105  and  _106
REMARK   46  A    between atoms: _106  and  _107
REMARK   47  A    between atoms: _107  and  _108
REMARK   48  A    between atoms: _108  and  _109
REMARK   49  A    between atoms: _113  and  _115
REMARK   50  A    between atoms: _115  and  _116
REMARK   51  A    between atoms: _115  and  _118
REMARK   52  A    between atoms: _118  and  _119
REMARK   53  A    between atoms: _119  and  _120
REMARK   54  A    between atoms: _122  and  _124
REMARK   55  A    between atoms: _124  and  _125
REMARK   56  A    between atoms: _124  and  _127
REMARK   57  A    between atoms: _127  and  _128
REMARK   58  A    between atoms: _131  and  _133
REMARK   59  A    between atoms: _133  and  _134
REMARK   60  A    between atoms: _136  and  _138
REMARK   61  A    between atoms: _138  and  _139
REMARK   62  A    between atoms: _141  and  _143
REMARK   63  A    between atoms: _143  and  _144
REMARK   64  A    between atoms: _143  and  _146
REMARK   65  A    between atoms: _146  and  _147
REMARK   66  A    between atoms: _150  and  _152
REMARK   67  A    between atoms: _152  and  _153
REMARK   68  A    between atoms: _155  and  _157
REMARK   69  A    between atoms: _157  and  _158
REMARK   70  A    between atoms: _160  and  _162
REMARK   71  A    between atoms: _162  and  _163
REMARK   72  A    between atoms: _162  and  _165
REMARK   73  A    between atoms: _165  and  _166
REMARK   74  A    between atoms: _172  and  _174
REMARK   75  A    between atoms: _174  and  _175
REMARK   76  A    between atoms: _174  and  _177
REMARK   77  A    between atoms: _177  and  _178
REMARK   78  A    between atoms: _181  and  _183
REMARK   79  A    between atoms: _183  and  _184
REMARK   80  A    between atoms: _183  and  _186
REMARK   81  A    between atoms: _186  and  _187
REMARK   82  A    between atoms: _191  and  _192
REMARK   83  A    between atoms: _197  and  _199
REMARK   84  A    between atoms: _199  and  _200
REMARK   85  A    between atoms: _199  and  _202
REMARK   86  A    between atoms: _202  and  _203
REMARK   87  A    between atoms: _207  and  _208
REMARK   88  A    between atoms: _213  and  _215
REMARK   89  A    between atoms: _215  and  _216
REMARK   90  A    between atoms: _215  and  _218
REMARK   91  A    between atoms: _221  and  _223
REMARK   92  A    between atoms: _223  and  _224
REMARK   93  A    between atoms: _223  and  _226
REMARK   94  A    between atoms: _226  and  _227
REMARK   95  A    between atoms: _232  and  _234
REMARK   96  A    between atoms: _234  and  _235
REMARK   97  A    between atoms: _234  and  _237
REMARK   98  A    between atoms: _237  and  _238
REMARK   99  A    between atoms: _241  and  _243
REMARK  100  A    between atoms: _243  and  _244
REMARK  101  A    between atoms: _243  and  _246
REMARK  102  A    between atoms: _246  and  _247
REMARK  103  A    between atoms: _250  and  _252
REMARK  104  A    between atoms: _252  and  _253
REMARK  105  A    between atoms: _255  and  _257
REMARK  106  A    between atoms: _257  and  _258
REMARK  107  A    between atoms: _257  and  _260
REMARK  108  A    between atoms: _260  and  _261
REMARK  109  A    between atoms: _261  and  _262
REMARK  110  A    between atoms: _262  and  _263
REMARK  111  A    between atoms: _272  and  _274
REMARK  112  A    between atoms: _274  and  _275
REMARK  113  A    between atoms: _274  and  _277
REMARK  114  A    between atoms: _277  and  _278
REMARK  115  A    between atoms: _283  and  _285
REMARK  116  A    between atoms: _285  and  _286
REMARK  117  A    between atoms: _285  and  _288
REMARK  118  A    between atoms: _288  and  _289
REMARK  119  A    between atoms: _289  and  _290
REMARK  120  A    between atoms: _290  and  _291
REMARK  121  A    between atoms: _300  and  _302
REMARK  122  A    between atoms: _302  and  _303
REMARK  123  A    between atoms: _302  and  _305
REMARK  124  A    between atoms: _305  and  _306
REMARK  125  A    between atoms: _309  and  _311
REMARK  126  A    between atoms: _311  and  _312
REMARK  127  A    between atoms: _311  and  _314
REMARK  128  A    between atoms: _314  and  _315
REMARK  129  A    between atoms: _318  and  _320
REMARK  130  A    between atoms: _320  and  _321
REMARK  131  A    between atoms: _320  and  _323
REMARK  132  A    between atoms: _323  and  _324
REMARK  133  A    between atoms: _327  and  _329
REMARK  134  A    between atoms: _329  and  _330
REMARK  135  A    between atoms: _329  and  _332
REMARK  136  A    between atoms: _332  and  _333
REMARK  137  A    between atoms: _336  and  _338
REMARK  138  A    between atoms: _338  and  _339
REMARK  139  A    between atoms: _341  and  _343
REMARK  140  A    between atoms: _343  and  _344
REMARK  141  A    between atoms: _347  and  _349
REMARK  142  A    between atoms: _349  and  _350
REMARK  143  A    between atoms: _349  and  _352
REMARK  144  A    between atoms: _352  and  _353
REMARK  145  A    between atoms: _356  and  _358
REMARK  146  A    between atoms: _358  and  _359
REMARK  147  A    between atoms: _358  and  _361
REMARK  148  A    between atoms: _361  and  _362
REMARK  149  A    between atoms: _365  and  _367
REMARK  150  A    between atoms: _367  and  _368
REMARK  151  A    between atoms: _367  and  _370
REMARK  152  A    between atoms: _370  and  _371
REMARK  153  A    between atoms: _374  and  _376
REMARK  154  A    between atoms: _376  and  _377
REMARK  155  A    between atoms: _376  and  _379
REMARK  156  A    between atoms: _382  and  _384
REMARK  157  A    between atoms: _384  and  _385
REMARK  158  A    between atoms: _384  and  _387
REMARK  159  A    between atoms: _387  and  _388
REMARK  160  A    between atoms: _391  and  _393
REMARK  161  A    between atoms: _393  and  _394
REMARK  162  A    between atoms: _393  and  _396
REMARK  163  A    between atoms: _396  and  _397
REMARK  164  A    between atoms: _397  and  _398
REMARK  165  A    between atoms: _398  and  _399
REMARK  166  A    between atoms: _399  and  _400
REMARK  167  A    between atoms: _404  and  _406
REMARK  168  A    between atoms: _406  and  _407
REMARK  169  A    between atoms: _406  and  _409
REMARK  170  A    between atoms: _409  and  _410
REMARK  171  A    between atoms: _410  and  _411
REMARK  172  A    between atoms: _413  and  _415
REMARK  173  A    between atoms: _415  and  _416
REMARK  174  A    between atoms: _415  and  _418
REMARK  175  A    between atoms: _418  and  _419
REMARK  176  A    between atoms: _422  and  _424
REMARK  177  A    between atoms: _424  and  _425
REMARK  178  A    between atoms: _427  and  _429
REMARK  179  A    between atoms: _429  and  _430
REMARK  180  A    between atoms: _432  and  _434
REMARK  181  A    between atoms: _434  and  _435
REMARK  182  A    between atoms: _434  and  _437
REMARK  183  A    between atoms: _437  and  _438
REMARK  184  A    between atoms: _441  and  _443
REMARK  185  A    between atoms: _443  and  _444
REMARK  186  A    between atoms: _446  and  _448
REMARK  187  A    between atoms: _448  and  _449
REMARK  188  A    between atoms: _451  and  _453
REMARK  189  A    between atoms: _453  and  _454
REMARK  190  A    between atoms: _453  and  _456
REMARK  191  A    between atoms: _456  and  _457
REMARK  192  A    between atoms: _463  and  _465
REMARK  193  A    between atoms: _465  and  _466
REMARK  194  A    between atoms: _465  and  _468
REMARK  195  A    between atoms: _468  and  _469
REMARK  196  A    between atoms: _472  and  _474
REMARK  197  A    between atoms: _474  and  _475
REMARK  198  A    between atoms: _474  and  _477
REMARK  199  A    between atoms: _480  and  _482
REMARK  200  A    between atoms: _482  and  _483
REMARK  201  A    between atoms: _482  and  _485
REMARK  202  A    between atoms: _485  and  _486
REMARK  203  A    between atoms: _489  and  _491
REMARK  204  A    between atoms: _491  and  _492
REMARK  205  A    between atoms: _491  and  _494
REMARK  206  A    between atoms: _494  and  _495
REMARK  207  A    between atoms: _499  and  _500
REMARK  208  A    between atoms: _505  and  _507
REMARK  209  A    between atoms: _507  and  _508
REMARK  210  A    between atoms: _507  and  _510
REMARK  211  A    between atoms: _513  and  _515
REMARK  212  A    between atoms: _515  and  _516
REMARK  213  A    between atoms: _515  and  _518
REMARK  214  A    between atoms: _518  and  _519
REMARK  215  A    between atoms: _524  and  _526
REMARK  216  A    between atoms: _526  and  _527
REMARK  217  A    between atoms: _526  and  _529
REMARK  218  A    between atoms: _529  and  _530
REMARK  219  A    between atoms: _533  and  _535
REMARK  220  A    between atoms: _535  and  _536
REMARK  221  A    between atoms: _535  and  _538
REMARK  222  A    between atoms: _538  and  _539
REMARK  223  A    between atoms: _542  and  _544
REMARK  224  A    between atoms: _544  and  _545
REMARK  225  A    between atoms: _547  and  _549
REMARK  226  A    between atoms: _549  and  _550
REMARK  227  A    between atoms: _549  and  _552
REMARK  228  A    between atoms: _552  and  _553
REMARK  229  A    between atoms: _553  and  _554
REMARK  230  A    between atoms: _554  and  _555
REMARK  231  A    between atoms: _564  and  _566
REMARK  232  A    between atoms: _566  and  _567
REMARK  233  A    between atoms: _566  and  _569
REMARK  234  A    between atoms: _569  and  _570
REMARK                            x       y       z     vdW  Elec       q    Type
REMARK                         _______ _______ _______ _____ _____    ______ ____
ROOT
ATOM      1  C   ILE A   5      14.891  22.214  -3.942  0.00  0.00    +0.241 C 
ATOM      2  O   ILE A   5      15.320  21.078  -4.191  0.00  0.00    -0.273 OA
ATOM      3  N   ILE A   6      15.574  23.359  -4.202  0.00  0.00    -0.297 N 
ATOM      4  H   ILE A   6      15.103  24.271  -4.035  0.00  0.00    +0.150 HD
ENDROOT
BRANCH   3   5
ATOM      5  CA  ILE A   6      16.951  23.359  -4.710  0.00  0.00    +0.149 C 
BRANCH   5   6
ATOM      6  C   ILE A   6      17.820  23.575  -3.480  0.00  0.00    +0.241 C 
ATOM      7  O   ILE A   6      17.773  24.644  -2.875  0.00  0.00    -0.273 OA
ATOM      8  N   GLY A   7      18.589  22.546  -3.122  0.00  0.00    -0.295 N 
ATOM      9  H   GLY A   7      18.597  21.699  -3.726  0.00  0.00    +0.150 HD
BRANCH   8  10
ATOM     10  CA  GLY A   7      19.416  22.552  -1.929  0.00  0.00    +0.176 C 
BRANCH  10  11
ATOM     11  C   GLY A   7      20.851  22.912  -2.214  0.00  0.00    +0.243 C 
ATOM     12  N   ARG A   8      21.664  22.935  -1.150  0.00  0.00    -0.297 N 
ATOM     13  H   ARG A   8      21.299  22.624  -0.227  0.00  0.00    +0.150 HD
ATOM     14  O   GLY A   7      21.233  23.172  -3.368  0.00  0.00    -0.273 OA
BRANCH  12  15
ATOM     15  CA  ARG A   8      23.051  23.386  -1.253  0.00  0.00    +0.149 C 
BRANCH  15  16
ATOM     16  C   ARG A   8      23.904  22.603  -2.258  0.00  0.00    +0.241 C 
ATOM     17  N   ASN A   9      23.612  21.295  -2.467  0.00  0.00    -0.298 N 
ATOM     18  H   ASN A   9      22.826  20.845  -1.956  0.00  0.00    +0.150 HD
ATOM     19  O   ARG A   8      24.791  23.198  -2.882  0.00  0.00    -0.273 OA
BRANCH  17  20
ATOM     20  CA  ASN A   9      24.415  20.522  -3.420  0.00  0.00    +0.146 C 
BRANCH  20  21
ATOM     21  C   ASN A   9      24.399  21.136  -4.824  0.00  0.00    +0.227 C 
ATOM     22  O   ASN A   9      25.415  21.051  -5.538  0.00  0.00    -0.286 OA
ENDBRANCH  20  21
BRANCH  20  23
ATOM     23  CB  ASN A   9      24.001  19.047  -3.452  0.00  0.00    +0.112 C 
BRANCH  23  24
ATOM     24  CG  ASN A   9      22.675  18.807  -4.126  0.00  0.00    +0.222 C 
ATOM     25  OD1 ASN A   9      21.670  19.435  -3.785  0.00  0.00    -0.275 OA
ATOM     26  ND2 ASN A   9      22.666  17.946  -5.138  0.00  0.00    -0.329 N 
ATOM     27 HD21 ASN A   9      23.535  17.436  -5.394  0.00  0.00    +0.145 HD
ATOM     28 HD22 ASN A   9      21.790  17.782  -5.674  0.00  0.00    +0.145 HD
ENDBRANCH  23  24
ENDBRANCH  20  23
ENDBRANCH  17  20
ENDBRANCH  15  16
BRANCH  15  29
ATOM     29  CB  ARG A   8      23.739  23.424   0.110  0.00  0.00    +0.033 C 
BRANCH  29  30
ATOM     30  CG  ARG A   8      23.110  24.407   1.109  0.00  0.00    +0.045 C 
BRANCH  30  31
ATOM     31  CD  ARG A   8      23.942  24.521   2.384  0.00  0.00    +0.174 C 
BRANCH  31  32
ATOM     32  NE  ARG A   8      23.970  23.266   3.140  0.00  0.00    -0.265 N 
ATOM     33  HE  ARG A   8      23.153  23.057   3.749  0.00  0.00    +0.259 HD
ATOM     34  CZ  ARG A   8      24.959  22.368   3.111  0.00  0.00    +0.342 C 
ATOM     35  NH2 ARG A   8      24.863  21.245   3.813  0.00  0.00    -0.292 N 
ATOM     36 HH21 ARG A   8      24.016  21.062   4.388  0.00  0.00    +0.255 HD
ATOM     37 HH22 ARG A   8      25.635  20.548   3.788  0.00  0.00    +0.255 HD
ATOM     38  NH1 ARG A   8      26.061  22.601   2.399  0.00  0.00    -0.292 N 
ATOM     39 HH11 ARG A   8      26.827  21.898   2.381  0.00  0.00    +0.255 HD
ATOM     40 HH12 ARG A   8      26.155  23.486   1.861  0.00  0.00    +0.255 HD
ENDBRANCH  31  32
ENDBRANCH  30  31
ENDBRANCH  29  30
ENDBRANCH  15  29
ENDBRANCH  12  15
ENDBRANCH  10  11
ENDBRANCH   8  10
ENDBRANCH   5   6
BRANCH   5  41
ATOM     41  CB  ILE A   6      17.228  24.416  -5.804  0.00  0.00    +0.027 C 
ATOM     42  CG2 ILE A   6      18.691  24.374  -6.268  0.00  0.00    +0.002 C 
BRANCH  41  43
ATOM     43  CG1 ILE A   6      16.212  24.307  -6.997  0.00  0.00    +0.002 C 
ATOM     44  CD1 ILE A   6      16.117  22.929  -7.710  0.00  0.00    +0.000 C 
ENDBRANCH  41  43
ENDBRANCH   5  41
ENDBRANCH   3   5
BRANCH   1  45
ATOM     45  CA  ILE A   5      13.517  22.356  -3.296  0.00  0.00    +0.149 C 
BRANCH  45  47
ATOM     46  C   ASN A   4      11.447  22.333  -4.634  0.00  0.00    +0.241 C 
ATOM     47  N   ILE A   5      12.485  21.665  -4.074  0.00  0.00    -0.297 N 
ATOM     48  H   ILE A   5      12.551  20.635  -4.200  0.00  0.00    +0.150 HD
ATOM     49  O   ASN A   4      11.323  23.557  -4.561  0.00  0.00    -0.273 OA
BRANCH  46  50
ATOM     50  CA  ASN A   4      10.374  21.477  -5.319  0.00  0.00    +0.158 C 
BRANCH  50  53
ATOM     51  C   VAL A   3       8.724  21.473  -3.515  0.00  0.00    +0.241 C 
ATOM     52  O   VAL A   3       9.446  20.766  -2.813  0.00  0.00    -0.273 OA
ATOM     53  N   ASN A   4       9.063  21.863  -4.758  0.00  0.00    -0.297 N 
ATOM     54  H   ASN A   4       8.403  22.435  -5.323  0.00  0.00    +0.150 HD
BRANCH  51  55
ATOM     55  CA  VAL A   3       7.410  21.997  -2.940  0.00  0.00    +0.149 C 
BRANCH  55  57
ATOM     56  C   PRO A   2       5.679  20.780  -1.628  0.00  0.00    +0.241 C 
ATOM     57  N   VAL A   3       6.974  21.076  -1.878  0.00  0.00    -0.297 N 
ATOM     58  H   VAL A   3       7.703  20.628  -1.287  0.00  0.00    +0.150 HD
ATOM     59  O   PRO A   2       4.739  21.290  -2.252  0.00  0.00    -0.273 OA
BRANCH  56  65
ATOM     60  C   THR A   1       6.804  17.897  -1.178  0.00  0.00    +0.244 C 
ATOM     61  N   PRO A   2       6.491  18.824  -0.240  0.00  0.00    -0.272 N 
ATOM     62  CD  PRO A   2       7.048  18.981   1.118  0.00  0.00    +0.094 C 
ATOM     63  CG  PRO A   2       5.964  19.710   1.849  0.00  0.00    +0.024 C 
ATOM     64  CB  PRO A   2       5.285  20.560   0.842  0.00  0.00    +0.031 C 
ATOM     65  CA  PRO A   2       5.410  19.805  -0.485  0.00  0.00    +0.152 C 
ATOM     66  O   THR A   1       6.248  17.845  -2.285  0.00  0.00    -0.273 OA
BRANCH  60  67
ATOM     67  CA  THR A   1       7.966  16.927  -0.888  0.00  0.00    +0.172 C 
BRANCH  67  68
ATOM     68  CB  THR A   1       9.309  17.450  -1.452  0.00  0.00    +0.135 C 
ATOM     69  CG2 THR A   1       9.347  17.478  -2.986  0.00  0.00    +0.034 C 
BRANCH  68  70
ATOM     70  OG1 THR A   1       9.557  18.761  -0.942  0.00  0.00    -0.383 OA
ATOM     71  HG1 THR A   1       8.823  19.365  -1.218  0.00  0.00    +0.210 HD
ENDBRANCH  68  70
ENDBRANCH  67  68
BRANCH  67  72
ATOM     72  N   THR A   1       7.661  15.617  -1.450  0.00  0.00    -0.236 NA
ATOM     73  H   THR A   1       8.010  15.370  -2.398  0.00  0.00    +0.142 HD
ENDBRANCH  67  72
ENDBRANCH  60  67
ENDBRANCH  56  65
ENDBRANCH  55  57
BRANCH  55  74
ATOM     74  CB  VAL A   3       7.619  23.456  -2.436  0.00  0.00    +0.027 C 
ATOM     75  CG2 VAL A   3       8.668  23.526  -1.344  0.00  0.00    +0.002 C 
ATOM     76  CG1 VAL A   3       6.308  24.133  -2.019  0.00  0.00    +0.002 C 
ENDBRANCH  55  74
ENDBRANCH  51  55
ENDBRANCH  50  53
BRANCH  50  77
ATOM     77  CB  ASN A   4      10.428  21.672  -6.826  0.00  0.00    +0.114 C 
BRANCH  77  78
ATOM     78  CG  ASN A   4       9.413  20.816  -7.552  0.00  0.00    +0.222 C 
ATOM     79  OD1 ASN A   4       9.232  19.631  -7.241  0.00  0.00    -0.275 OA
ATOM     80  ND2 ASN A   4       8.711  21.423  -8.504  0.00  0.00    -0.329 N 
ATOM     81 HD21 ASN A   4       8.898  22.420  -8.732  0.00  0.00    +0.145 HD
ATOM     82 HD22 ASN A   4       7.975  20.900  -9.021  0.00  0.00    +0.145 HD
ENDBRANCH  77  78
ENDBRANCH  50  77
ENDBRANCH  46  50
ENDBRANCH  45  47
BRANCH  45  83
ATOM     83  CB  ILE A   5      13.525  21.744  -1.862  0.00  0.00    +0.027 C 
ATOM     84  CG2 ILE A   5      14.750  22.217  -1.055  0.00  0.00    +0.002 C 
BRANCH  83  85
ATOM     85  CG1 ILE A   5      12.208  22.055  -1.111  0.00  0.00    +0.002 C 
ATOM     86  CD1 ILE A   5      11.929  21.120   0.072  0.00  0.00    +0.000 C 
ENDBRANCH  83  85
ENDBRANCH  45  83
ENDBRANCH   1  45
TORSDOF 32
REMARK  Name = ../refined-set-2016/4mc2/4mc2_pocket.pdb
REMARK  234 active torsions:
REMARK  status: ('A' for Active; 'I' for Inactive)
REMARK    1  A    between atoms: _1  and  _3
REMARK    2  A    between atoms: _3  and  _4
REMARK    3  A    between atoms: _3  and  _6
REMARK    4  A    between atoms: _6  and  _7
REMARK    5  A    between atoms: _7  and  _8
REMARK    6  A    between atoms: _8  and  _9
REMARK    7  A    between atoms: _18  and  _20
REMARK    8  A    between atoms: _20  and  _21
REMARK    9  A    between atoms: _20  and  _23
REMARK   10  A    between atoms: _23  and  _24
REMARK   11  A    between atoms: _27  and  _29
REMARK   12  A    between atoms: _29  and  _30
REMARK   13  A    between atoms: _29  and  _32
REMARK   14  A    between atoms: _32  and  _33
REMARK   15  A    between atoms: _36  and  _38
REMARK   16  A    between atoms: _38  and  _39
REMARK   17  A    between atoms: _38  and  _41
REMARK   18  A    between atoms: _41  and  _42
REMARK   19  A    between atoms: _45  and  _47
REMARK   20  A    between atoms: _47  and  _48
REMARK   21  A    between atoms: _47  and  _50
REMARK   22  A    between atoms: _50  and  _51
REMARK   23  A    between atoms: _54  and  _56
REMARK   24  A    between atoms: _56  and  _57
REMARK   25  A    between atoms: _59  and  _61
REMARK   26  A    between atoms: _61  and  _62
REMARK   27  A    between atoms: _65  and  _67
REMARK   28  A    between atoms: _67  and  _68
REMARK   29  A    between atoms: _67  and  _70
REMARK   30  A    between atoms: _70  and  _71
REMARK   31  A    between atoms: _74  and  _76
REMARK   32  A    between atoms: _76  and  _77
REMARK   33  A    between atoms: _76  and  _79
REMARK   34  A    between atoms: _79  and  _80
REMARK   35  A    between atoms: _83  and  _85
REMARK   36  A    between atoms: _85  and  _86
REMARK   37  A    between atoms: _85  and  _88
REMARK   38  A    between atoms: _88  and  _89
REMARK   39  A    between atoms: _92  and  _94
REMARK   40  A    between atoms: _94  and  _95
REMARK   41  A    between atoms: _94  and  _97
REMARK   42  A    between atoms: _100  and  _102
REMARK   43  A    between atoms: _102  and  _103
REMARK   44  A    between atoms: _102  and  _105
REMARK   45  A    between atoms: _105  and  _106
REMARK   46  A    between atoms: _106  and  _107
REMARK   47  A    between atoms: _107  and  _108
REMARK   48  A    between atoms: _108  and  _109
REMARK   49  A    between atoms: _113  and  _115
REMARK   50  A    between atoms: _115  and  _116
REMARK   51  A    between atoms: _115  and  _118
REMARK   52  A    between atoms: _118  and  _119
REMARK   53  A    between atoms: _119  and  _120
REMARK   54  A    between atoms: _122  and  _124
REMARK   55  A    between atoms: _124  and  _125
REMARK   56  A    between atoms: _124  and  _127
REMARK   57  A    between atoms: _127  and  _128
REMARK   58  A    between atoms: _131  and  _133
REMARK   59  A    between atoms: _133  and  _134
REMARK   60  A    between atoms: _136  and  _138
REMARK   61  A    between atoms: _138  and  _139
REMARK   62  A    between atoms: _141  and  _143
REMARK   63  A    between atoms: _143  and  _144
REMARK   64  A    between atoms: _143  and  _146
REMARK   65  A    between atoms: _146  and  _147
REMARK   66  A    between atoms: _150  and  _152
REMARK   67  A    between atoms: _152  and  _153
REMARK   68  A    between atoms: _155  and  _157
REMARK   69  A    between atoms: _157  and  _158
REMARK   70  A    between atoms: _160  and  _162
REMARK   71  A    between atoms: _162  and  _163
REMARK   72  A    between atoms: _162  and  _165
REMARK   73  A    between atoms: _165  and  _166
REMARK   74  A    between atoms: _172  and  _174
REMARK   75  A    between atoms: _174  and  _175
REMARK   76  A    between atoms: _174  and  _177
REMARK   77  A    between atoms: _177  and  _178
REMARK   78  A    between atoms: _181  and  _183
REMARK   79  A    between atoms: _183  and  _184
REMARK   80  A    between atoms: _183  and  _186
REMARK   81  A    between atoms: _186  and  _187
REMARK   82  A    between atoms: _191  and  _192
REMARK   83  A    between atoms: _197  and  _199
REMARK   84  A    between atoms: _199  and  _200
REMARK   85  A    between atoms: _199  and  _202
REMARK   86  A    between atoms: _202  and  _203
REMARK   87  A    between atoms: _207  and  _208
REMARK   88  A    between atoms: _213  and  _215
REMARK   89  A    between atoms: _215  and  _216
REMARK   90  A    between atoms: _215  and  _218
REMARK   91  A    between atoms: _221  and  _223
REMARK   92  A    between atoms: _223  and  _224
REMARK   93  A    between atoms: _223  and  _226
REMARK   94  A    between atoms: _226  and  _227
REMARK   95  A    between atoms: _232  and  _234
REMARK   96  A    between atoms: _234  and  _235
REMARK   97  A    between atoms: _234  and  _237
REMARK   98  A    between atoms: _237  and  _238
REMARK   99  A    between atoms: _241  and  _243
REMARK  100  A    between atoms: _243  and  _244
REMARK  101  A    between atoms: _243  and  _246
REMARK  102  A    between atoms: _246  and  _247
REMARK  103  A    between atoms: _250  and  _252
REMARK  104  A    between atoms: _252  and  _253
REMARK  105  A    between atoms: _255  and  _257
REMARK  106  A    between atoms: _257  and  _258
REMARK  107  A    between atoms: _257  and  _260
REMARK  108  A    between atoms: _260  and  _261
REMARK  109  A    between atoms: _261  and  _262
REMARK  110  A    between atoms: _262  and  _263
REMARK  111  A    between atoms: _272  and  _274
REMARK  112  A    between atoms: _274  and  _275
REMARK  113  A    between atoms: _274  and  _277
REMARK  114  A    between atoms: _277  and  _278
REMARK  115  A    between atoms: _283  and  _285
REMARK  116  A    between atoms: _285  and  _286
REMARK  117  A    between atoms: _285  and  _288
REMARK  118  A    between atoms: _288  and  _289
REMARK  119  A    between atoms: _289  and  _290
REMARK  120  A    between atoms: _290  and  _291
REMARK  121  A    between atoms: _300  and  _302
REMARK  122  A    between atoms: _302  and  _303
REMARK  123  A    between atoms: _302  and  _305
REMARK  124  A    between atoms: _305  and  _306
REMARK  125  A    between atoms: _309  and  _311
REMARK  126  A    between atoms: _311  and  _312
REMARK  127  A    between atoms: _311  and  _314
REMARK  128  A    between atoms: _314  and  _315
REMARK  129  A    between atoms: _318  and  _320
REMARK  130  A    between atoms: _320  and  _321
REMARK  131  A    between atoms: _320  and  _323
REMARK  132  A    between atoms: _323  and  _324
REMARK  133  A    between atoms: _327  and  _329
REMARK  134  A    between atoms: _329  and  _330
REMARK  135  A    between atoms: _329  and  _332
REMARK  136  A    between atoms: _332  and  _333
REMARK  137  A    between atoms: _336  and  _338
REMARK  138  A    between atoms: _338  and  _339
REMARK  139  A    between atoms: _341  and  _343
REMARK  140  A    between atoms: _343  and  _344
REMARK  141  A    between atoms: _347  and  _349
REMARK  142  A    between atoms: _349  and  _350
REMARK  143  A    between atoms: _349  and  _352
REMARK  144  A    between atoms: _352  and  _353
REMARK  145  A    between atoms: _356  and  _358
REMARK  146  A    between atoms: _358  and  _359
REMARK  147  A    between atoms: _358  and  _361
REMARK  148  A    between atoms: _361  and  _362
REMARK  149  A    between atoms: _365  and  _367
REMARK  150  A    between atoms: _367  and  _368
REMARK  151  A    between atoms: _367  and  _370
REMARK  152  A    between atoms: _370  and  _371
REMARK  153  A    between atoms: _374  and  _376
REMARK  154  A    between atoms: _376  and  _377
REMARK  155  A    between atoms: _376  and  _379
REMARK  156  A    between atoms: _382  and  _384
REMARK  157  A    between atoms: _384  and  _385
REMARK  158  A    between atoms: _384  and  _387
REMARK  159  A    between atoms: _387  and  _388
REMARK  160  A    between atoms: _391  and  _393
REMARK  161  A    between atoms: _393  and  _394
REMARK  162  A    between atoms: _393  and  _396
REMARK  163  A    between atoms: _396  and  _397
REMARK  164  A    between atoms: _397  and  _398
REMARK  165  A    between atoms: _398  and  _399
REMARK  166  A    between atoms: _399  and  _400
REMARK  167  A    between atoms: _404  and  _406
REMARK  168  A    between atoms: _406  and  _407
REMARK  169  A    between atoms: _406  and  _409
REMARK  170  A    between atoms: _409  and  _410
REMARK  171  A    between atoms: _410  and  _411
REMARK  172  A    between atoms: _413  and  _415
REMARK  173  A    between atoms: _415  and  _416
REMARK  174  A    between atoms: _415  and  _418
REMARK  175  A    between atoms: _418  and  _419
REMARK  176  A    between atoms: _422  and  _424
REMARK  177  A    between atoms: _424  and  _425
REMARK  178  A    between atoms: _427  and  _429
REMARK  179  A    between atoms: _429  and  _430
REMARK  180  A    between atoms: _432  and  _434
REMARK  181  A    between atoms: _434  and  _435
REMARK  182  A    between atoms: _434  and  _437
REMARK  183  A    between atoms: _437  and  _438
REMARK  184  A    between atoms: _441  and  _443
REMARK  185  A    between atoms: _443  and  _444
REMARK  186  A    between atoms: _446  and  _448
REMARK  187  A    between atoms: _448  and  _449
REMARK  188  A    between atoms: _451  and  _453
REMARK  189  A    between atoms: _453  and  _454
REMARK  190  A    between atoms: _453  and  _456
REMARK  191  A    between atoms: _456  and  _457
REMARK  192  A    between atoms: _463  and  _465
REMARK  193  A    between atoms: _465  and  _466
REMARK  194  A    between atoms: _465  and  _468
REMARK  195  A    between atoms: _468  and  _469
REMARK  196  A    between atoms: _472  and  _474
REMARK  197  A    between atoms: _474  and  _475
REMARK  198  A    between atoms: _474  and  _477
REMARK  199  A    between atoms: _480  and  _482
REMARK  200  A    between atoms: _482  and  _483
REMARK  201  A    between atoms: _482  and  _485
REMARK  202  A    between atoms: _485  and  _486
REMARK  203  A    between atoms: _489  and  _491
REMARK  204  A    between atoms: _491  and  _492
REMARK  205  A    between atoms: _491  and  _494
REMARK  206  A    between atoms: _494  and  _495
REMARK  207  A    between atoms: _499  and  _500
REMARK  208  A    between atoms: _505  and  _507
REMARK  209  A    between atoms: _507  and  _508
REMARK  210  A    between atoms: _507  and  _510
REMARK  211  A    between atoms: _513  and  _515
REMARK  212  A    between atoms: _515  and  _516
REMARK  213  A    between atoms: _515  and  _518
REMARK  214  A    between atoms: _518  and  _519
REMARK  215  A    between atoms: _524  and  _526
REMARK  216  A    between atoms: _526  and  _527
REMARK  217  A    between atoms: _526  and  _529
REMARK  218  A    between atoms: _529  and  _530
REMARK  219  A    between atoms: _533  and  _535
REMARK  220  A    between atoms: _535  and  _536
REMARK  221  A    between atoms: _535  and  _538
REMARK  222  A    between atoms: _538  and  _539
REMARK  223  A    between atoms: _542  and  _544
REMARK  224  A    between atoms: _544  and  _545
REMARK  225  A    between atoms: _547  and  _549
REMARK  226  A    between atoms: _549  and  _550
REMARK  227  A    between atoms: _549  and  _552
REMARK  228  A    between atoms: _552  and  _553
REMARK  229  A    between atoms: _553  and  _554
REMARK  230  A    between atoms: _554  and  _555
REMARK  231  A    between atoms: _564  and  _566
REMARK  232  A    between atoms: _566  and  _567
REMARK  233  A    between atoms: _566  and  _569
REMARK  234  A    between atoms: _569  and  _570
REMARK                            x       y       z     vdW  Elec       q    Type
REMARK                         _______ _______ _______ _____ _____    ______ ____
ROOT
ATOM      1  O   HOH     1       8.168  35.803   5.459  0.00  0.00    +0.000 OA
ENDROOT
TORSDOF 0
REMARK  Name = ../refined-set-2016/4mc2/4mc2_pocket.pdb
REMARK  234 active torsions:
REMARK  status: ('A' for Active; 'I' for Inactive)
REMARK    1  A    between atoms: _1  and  _3
REMARK    2  A    between atoms: _3  and  _4
REMARK    3  A    between atoms: _3  and  _6
REMARK    4  A    between atoms: _6  and  _7
REMARK    5  A    between atoms: _7  and  _8
REMARK    6  A    between atoms: _8  and  _9
REMARK    7  A    between atoms: _18  and  _20
REMARK    8  A    between atoms: _20  and  _21
REMARK    9  A    between atoms: _20  and  _23
REMARK   10  A    between atoms: _23  and  _24
REMARK   11  A    between atoms: _27  and  _29
REMARK   12  A    between atoms: _29  and  _30
REMARK   13  A    between atoms: _29  and  _32
REMARK   14  A    between atoms: _32  and  _33
REMARK   15  A    between atoms: _36  and  _38
REMARK   16  A    between atoms: _38  and  _39
REMARK   17  A    between atoms: _38  and  _41
REMARK   18  A    between atoms: _41  and  _42
REMARK   19  A    between atoms: _45  and  _47
REMARK   20  A    between atoms: _47  and  _48
REMARK   21  A    between atoms: _47  and  _50
REMARK   22  A    between atoms: _50  and  _51
REMARK   23  A    between atoms: _54  and  _56
REMARK   24  A    between atoms: _56  and  _57
REMARK   25  A    between atoms: _59  and  _61
REMARK   26  A    between atoms: _61  and  _62
REMARK   27  A    between atoms: _65  and  _67
REMARK   28  A    between atoms: _67  and  _68
REMARK   29  A    between atoms: _67  and  _70
REMARK   30  A    between atoms: _70  and  _71
REMARK   31  A    between atoms: _74  and  _76
REMARK   32  A    between atoms: _76  and  _77
REMARK   33  A    between atoms: _76  and  _79
REMARK   34  A    between atoms: _79  and  _80
REMARK   35  A    between atoms: _83  and  _85
REMARK   36  A    between atoms: _85  and  _86
REMARK   37  A    between atoms: _85  and  _88
REMARK   38  A    between atoms: _88  and  _89
REMARK   39  A    between atoms: _92  and  _94
REMARK   40  A    between atoms: _94  and  _95
REMARK   41  A    between atoms: _94  and  _97
REMARK   42  A    between atoms: _100  and  _102
REMARK   43  A    between atoms: _102  and  _103
REMARK   44  A    between atoms: _102  and  _105
REMARK   45  A    between atoms: _105  and  _106
REMARK   46  A    between atoms: _106  and  _107
REMARK   47  A    between atoms: _107  and  _108
REMARK   48  A    between atoms: _108  and  _109
REMARK   49  A    between atoms: _113  and  _115
REMARK   50  A    between atoms: _115  and  _116
REMARK   51  A    between atoms: _115  and  _118
REMARK   52  A    between atoms: _118  and  _119
REMARK   53  A    between atoms: _119  and  _120
REMARK   54  A    between atoms: _122  and  _124
REMARK   55  A    between atoms: _124  and  _125
REMARK   56  A    between atoms: _124  and  _127
REMARK   57  A    between atoms: _127  and  _128
REMARK   58  A    between atoms: _131  and  _133
REMARK   59  A    between atoms: _133  and  _134
REMARK   60  A    between atoms: _136  and  _138
REMARK   61  A    between atoms: _138  and  _139
REMARK   62  A    between atoms: _141  and  _143
REMARK   63  A    between atoms: _143  and  _144
REMARK   64  A    between atoms: _143  and  _146
REMARK   65  A    between atoms: _146  and  _147
REMARK   66  A    between atoms: _150  and  _152
REMARK   67  A    between atoms: _152  and  _153
REMARK   68  A    between atoms: _155  and  _157
REMARK   69  A    between atoms: _157  and  _158
REMARK   70  A    between atoms: _160  and  _162
REMARK   71  A    between atoms: _162  and  _163
REMARK   72  A    between atoms: _162  and  _165
REMARK   73  A    between atoms: _165  and  _166
REMARK   74  A    between atoms: _172  and  _174
REMARK   75  A    between atoms: _174  and  _175
REMARK   76  A    between atoms: _174  and  _177
REMARK   77  A    between atoms: _177  and  _178
REMARK   78  A    between atoms: _181  and  _183
REMARK   79  A    between atoms: _183  and  _184
REMARK   80  A    between atoms: _183  and  _186
REMARK   81  A    between atoms: _186  and  _187
REMARK   82  A    between atoms: _191  and  _192
REMARK   83  A    between atoms: _197  and  _199
REMARK   84  A    between atoms: _199  and  _200
REMARK   85  A    between atoms: _199  and  _202
REMARK   86  A    between atoms: _202  and  _203
REMARK   87  A    between atoms: _207  and  _208
REMARK   88  A    between atoms: _213  and  _215
REMARK   89  A    between atoms: _215  and  _216
REMARK   90  A    between atoms: _215  and  _218
REMARK   91  A    between atoms: _221  and  _223
REMARK   92  A    between atoms: _223  and  _224
REMARK   93  A    between atoms: _223  and  _226
REMARK   94  A    between atoms: _226  and  _227
REMARK   95  A    between atoms: _232  and  _234
REMARK   96  A    between atoms: _234  and  _235
REMARK   97  A    between atoms: _234  and  _237
REMARK   98  A    between atoms: _237  and  _238
REMARK   99  A    between atoms: _241  and  _243
REMARK  100  A    between atoms: _243  and  _244
REMARK  101  A    between atoms: _243  and  _246
REMARK  102  A    between atoms: _246  and  _247
REMARK  103  A    between atoms: _250  and  _252
REMARK  104  A    between atoms: _252  and  _253
REMARK  105  A    between atoms: _255  and  _257
REMARK  106  A    between atoms: _257  and  _258
REMARK  107  A    between atoms: _257  and  _260
REMARK  108  A    between atoms: _260  and  _261
REMARK  109  A    between atoms: _261  and  _262
REMARK  110  A    between atoms: _262  and  _263
REMARK  111  A    between atoms: _272  and  _274
REMARK  112  A    between atoms: _274  and  _275
REMARK  113  A    between atoms: _274  and  _277
REMARK  114  A    between atoms: _277  and  _278
REMARK  115  A    between atoms: _283  and  _285
REMARK  116  A    between atoms: _285  and  _286
REMARK  117  A    between atoms: _285  and  _288
REMARK  118  A    between atoms: _288  and  _289
REMARK  119  A    between atoms: _289  and  _290
REMARK  120  A    between atoms: _290  and  _291
REMARK  121  A    between atoms: _300  and  _302
REMARK  122  A    between atoms: _302  and  _303
REMARK  123  A    between atoms: _302  and  _305
REMARK  124  A    between atoms: _305  and  _306
REMARK  125  A    between atoms: _309  and  _311
REMARK  126  A    between atoms: _311  and  _312
REMARK  127  A    between atoms: _311  and  _314
REMARK  128  A    between atoms: _314  and  _315
REMARK  129  A    between atoms: _318  and  _320
REMARK  130  A    between atoms: _320  and  _321
REMARK  131  A    between atoms: _320  and  _323
REMARK  132  A    between atoms: _323  and  _324
REMARK  133  A    between atoms: _327  and  _329
REMARK  134  A    between atoms: _329  and  _330
REMARK  135  A    between atoms: _329  and  _332
REMARK  136  A    between atoms: _332  and  _333
REMARK  137  A    between atoms: _336  and  _338
REMARK  138  A    between atoms: _338  and  _339
REMARK  139  A    between atoms: _341  and  _343
REMARK  140  A    between atoms: _343  and  _344
REMARK  141  A    between atoms: _347  and  _349
REMARK  142  A    between atoms: _349  and  _350
REMARK  143  A    between atoms: _349  and  _352
REMARK  144  A    between atoms: _352  and  _353
REMARK  145  A    between atoms: _356  and  _358
REMARK  146  A    between atoms: _358  and  _359
REMARK  147  A    between atoms: _358  and  _361
REMARK  148  A    between atoms: _361  and  _362
REMARK  149  A    between atoms: _365  and  _367
REMARK  150  A    between atoms: _367  and  _368
REMARK  151  A    between atoms: _367  and  _370
REMARK  152  A    between atoms: _370  and  _371
REMARK  153  A    between atoms: _374  and  _376
REMARK  154  A    between atoms: _376  and  _377
REMARK  155  A    between atoms: _376  and  _379
REMARK  156  A    between atoms: _382  and  _384
REMARK  157  A    between atoms: _384  and  _385
REMARK  158  A    between atoms: _384  and  _387
REMARK  159  A    between atoms: _387  and  _388
REMARK  160  A    between atoms: _391  and  _393
REMARK  161  A    between atoms: _393  and  _394
REMARK  162  A    between atoms: _393  and  _396
REMARK  163  A    between atoms: _396  and  _397
REMARK  164  A    between atoms: _397  and  _398
REMARK  165  A    between atoms: _398  and  _399
REMARK  166  A    between atoms: _399  and  _400
REMARK  167  A    between atoms: _404  and  _406
REMARK  168  A    between atoms: _406  and  _407
REMARK  169  A    between atoms: _406  and  _409
REMARK  170  A    between atoms: _409  and  _410
REMARK  171  A    between atoms: _410  and  _411
REMARK  172  A    between atoms: _413  and  _415
REMARK  173  A    between atoms: _415  and  _416
REMARK  174  A    between atoms: _415  and  _418
REMARK  175  A    between atoms: _418  and  _419
REMARK  176  A    between atoms: _422  and  _424
REMARK  177  A    between atoms: _424  and  _425
REMARK  178  A    between atoms: _427  and  _429
REMARK  179  A    between atoms: _429  and  _430
REMARK  180  A    between atoms: _432  and  _434
REMARK  181  A    between atoms: _434  and  _435
REMARK  182  A    between atoms: _434  and  _437
REMARK  183  A    between atoms: _437  and  _438
REMARK  184  A    between atoms: _441  and  _443
REMARK  185  A    between atoms: _443  and  _444
REMARK  186  A    between atoms: _446  and  _448
REMARK  187  A    between atoms: _448  and  _449
REMARK  188  A    between atoms: _451  and  _453
REMARK  189  A    between atoms: _453  and  _454
REMARK  190  A    between atoms: _453  and  _456
REMARK  191  A    between atoms: _456  and  _457
REMARK  192  A    between atoms: _463  and  _465
REMARK  193  A    between atoms: _465  and  _466
REMARK  194  A    between atoms: _465  and  _468
REMARK  195  A    between atoms: _468  and  _469
REMARK  196  A    between atoms: _472  and  _474
REMARK  197  A    between atoms: _474  and  _475
REMARK  198  A    between atoms: _474  and  _477
REMARK  199  A    between atoms: _480  and  _482
REMARK  200  A    between atoms: _482  and  _483
REMARK  201  A    between atoms: _482  and  _485
REMARK  202  A    between atoms: _485  and  _486
REMARK  203  A    between atoms: _489  and  _491
REMARK  204  A    between atoms: _491  and  _492
REMARK  205  A    between atoms: _491  and  _494
REMARK  206  A    between atoms: _494  and  _495
REMARK  207  A    between atoms: _499  and  _500
REMARK  208  A    between atoms: _505  and  _507
REMARK  209  A    between atoms: _507  and  _508
REMARK  210  A    between atoms: _507  and  _510
REMARK  211  A    between atoms: _513  and  _515
REMARK  212  A    between atoms: _515  and  _516
REMARK  213  A    between atoms: _515  and  _518
REMARK  214  A    between atoms: _518  and  _519
REMARK  215  A    between atoms: _524  and  _526
REMARK  216  A    between atoms: _526  and  _527
REMARK  217  A    between atoms: _526  and  _529
REMARK  218  A    between atoms: _529  and  _530
REMARK  219  A    between atoms: _533  and  _535
REMARK  220  A    between atoms: _535  and  _536
REMARK  221  A    between atoms: _535  and  _538
REMARK  222  A    between atoms: _538  and  _539
REMARK  223  A    between atoms: _542  and  _544
REMARK  224  A    between atoms: _544  and  _545
REMARK  225  A    between atoms: _547  and  _549
REMARK  226  A    between atoms: _549  and  _550
REMARK  227  A    between atoms: _549  and  _552
REMARK  228  A    between atoms: _552  and  _553
REMARK  229  A    between atoms: _553  and  _554
REMARK  230  A    between atoms: _554  and  _555
REMARK  231  A    between atoms: _564  and  _566
REMARK  232  A    between atoms: _566  and  _567
REMARK  233  A    between atoms: _566  and  _569
REMARK  234  A    between atoms: _569  and  _570
REMARK                            x       y       z     vdW  Elec       q    Type
REMARK                         _______ _______ _______ _____ _____    ______ ____
ROOT
ATOM      1  O   HOH     1       8.481  33.547  12.469  0.00  0.00    +0.000 OA
ENDROOT
TORSDOF 0
REMARK  Name = ../refined-set-2016/4mc2/4mc2_pocket.pdb
REMARK  234 active torsions:
REMARK  status: ('A' for Active; 'I' for Inactive)
REMARK    1  A    between atoms: _1  and  _3
REMARK    2  A    between atoms: _3  and  _4
REMARK    3  A    between atoms: _3  and  _6
REMARK    4  A    between atoms: _6  and  _7
REMARK    5  A    between atoms: _7  and  _8
REMARK    6  A    between atoms: _8  and  _9
REMARK    7  A    between atoms: _18  and  _20
REMARK    8  A    between atoms: _20  and  _21
REMARK    9  A    between atoms: _20  and  _23
REMARK   10  A    between atoms: _23  and  _24
REMARK   11  A    between atoms: _27  and  _29
REMARK   12  A    between atoms: _29  and  _30
REMARK   13  A    between atoms: _29  and  _32
REMARK   14  A    between atoms: _32  and  _33
REMARK   15  A    between atoms: _36  and  _38
REMARK   16  A    between atoms: _38  and  _39
REMARK   17  A    between atoms: _38  and  _41
REMARK   18  A    between atoms: _41  and  _42
REMARK   19  A    between atoms: _45  and  _47
REMARK   20  A    between atoms: _47  and  _48
REMARK   21  A    between atoms: _47  and  _50
REMARK   22  A    between atoms: _50  and  _51
REMARK   23  A    between atoms: _54  and  _56
REMARK   24  A    between atoms: _56  and  _57
REMARK   25  A    between atoms: _59  and  _61
REMARK   26  A    between atoms: _61  and  _62
REMARK   27  A    between atoms: _65  and  _67
REMARK   28  A    between atoms: _67  and  _68
REMARK   29  A    between atoms: _67  and  _70
REMARK   30  A    between atoms: _70  and  _71
REMARK   31  A    between atoms: _74  and  _76
REMARK   32  A    between atoms: _76  and  _77
REMARK   33  A    between atoms: _76  and  _79
REMARK   34  A    between atoms: _79  and  _80
REMARK   35  A    between atoms: _83  and  _85
REMARK   36  A    between atoms: _85  and  _86
REMARK   37  A    between atoms: _85  and  _88
REMARK   38  A    between atoms: _88  and  _89
REMARK   39  A    between atoms: _92  and  _94
REMARK   40  A    between atoms: _94  and  _95
REMARK   41  A    between atoms: _94  and  _97
REMARK   42  A    between atoms: _100  and  _102
REMARK   43  A    between atoms: _102  and  _103
REMARK   44  A    between atoms: _102  and  _105
REMARK   45  A    between atoms: _105  and  _106
REMARK   46  A    between atoms: _106  and  _107
REMARK   47  A    between atoms: _107  and  _108
REMARK   48  A    between atoms: _108  and  _109
REMARK   49  A    between atoms: _113  and  _115
REMARK   50  A    between atoms: _115  and  _116
REMARK   51  A    between atoms: _115  and  _118
REMARK   52  A    between atoms: _118  and  _119
REMARK   53  A    between atoms: _119  and  _120
REMARK   54  A    between atoms: _122  and  _124
REMARK   55  A    between atoms: _124  and  _125
REMARK   56  A    between atoms: _124  and  _127
REMARK   57  A    between atoms: _127  and  _128
REMARK   58  A    between atoms: _131  and  _133
REMARK   59  A    between atoms: _133  and  _134
REMARK   60  A    between atoms: _136  and  _138
REMARK   61  A    between atoms: _138  and  _139
REMARK   62  A    between atoms: _141  and  _143
REMARK   63  A    between atoms: _143  and  _144
REMARK   64  A    between atoms: _143  and  _146
REMARK   65  A    between atoms: _146  and  _147
REMARK   66  A    between atoms: _150  and  _152
REMARK   67  A    between atoms: _152  and  _153
REMARK   68  A    between atoms: _155  and  _157
REMARK   69  A    between atoms: _157  and  _158
REMARK   70  A    between atoms: _160  and  _162
REMARK   71  A    between atoms: _162  and  _163
REMARK   72  A    between atoms: _162  and  _165
REMARK   73  A    between atoms: _165  and  _166
REMARK   74  A    between atoms: _172  and  _174
REMARK   75  A    between atoms: _174  and  _175
REMARK   76  A    between atoms: _174  and  _177
REMARK   77  A    between atoms: _177  and  _178
REMARK   78  A    between atoms: _181  and  _183
REMARK   79  A    between atoms: _183  and  _184
REMARK   80  A    between atoms: _183  and  _186
REMARK   81  A    between atoms: _186  and  _187
REMARK   82  A    between atoms: _191  and  _192
REMARK   83  A    between atoms: _197  and  _199
REMARK   84  A    between atoms: _199  and  _200
REMARK   85  A    between atoms: _199  and  _202
REMARK   86  A    between atoms: _202  and  _203
REMARK   87  A    between atoms: _207  and  _208
REMARK   88  A    between atoms: _213  and  _215
REMARK   89  A    between atoms: _215  and  _216
REMARK   90  A    between atoms: _215  and  _218
REMARK   91  A    between atoms: _221  and  _223
REMARK   92  A    between atoms: _223  and  _224
REMARK   93  A    between atoms: _223  and  _226
REMARK   94  A    between atoms: _226  and  _227
REMARK   95  A    between atoms: _232  and  _234
REMARK   96  A    between atoms: _234  and  _235
REMARK   97  A    between atoms: _234  and  _237
REMARK   98  A    between atoms: _237  and  _238
REMARK   99  A    between atoms: _241  and  _243
REMARK  100  A    between atoms: _243  and  _244
REMARK  101  A    between atoms: _243  and  _246
REMARK  102  A    between atoms: _246  and  _247
REMARK  103  A    between atoms: _250  and  _252
REMARK  104  A    between atoms: _252  and  _253
REMARK  105  A    between atoms: _255  and  _257
REMARK  106  A    between atoms: _257  and  _258
REMARK  107  A    between atoms: _257  and  _260
REMARK  108  A    between atoms: _260  and  _261
REMARK  109  A    between atoms: _261  and  _262
REMARK  110  A    between atoms: _262  and  _263
REMARK  111  A    between atoms: _272  and  _274
REMARK  112  A    between atoms: _274  and  _275
REMARK  113  A    between atoms: _274  and  _277
REMARK  114  A    between atoms: _277  and  _278
REMARK  115  A    between atoms: _283  and  _285
REMARK  116  A    between atoms: _285  and  _286
REMARK  117  A    between atoms: _285  and  _288
REMARK  118  A    between atoms: _288  and  _289
REMARK  119  A    between atoms: _289  and  _290
REMARK  120  A    between atoms: _290  and  _291
REMARK  121  A    between atoms: _300  and  _302
REMARK  122  A    between atoms: _302  and  _303
REMARK  123  A    between atoms: _302  and  _305
REMARK  124  A    between atoms: _305  and  _306
REMARK  125  A    between atoms: _309  and  _311
REMARK  126  A    between atoms: _311  and  _312
REMARK  127  A    between atoms: _311  and  _314
REMARK  128  A    between atoms: _314  and  _315
REMARK  129  A    between atoms: _318  and  _320
REMARK  130  A    between atoms: _320  and  _321
REMARK  131  A    between atoms: _320  and  _323
REMARK  132  A    between atoms: _323  and  _324
REMARK  133  A    between atoms: _327  and  _329
REMARK  134  A    between atoms: _329  and  _330
REMARK  135  A    between atoms: _329  and  _332
REMARK  136  A    between atoms: _332  and  _333
REMARK  137  A    between atoms: _336  and  _338
REMARK  138  A    between atoms: _338  and  _339
REMARK  139  A    between atoms: _341  and  _343
REMARK  140  A    between atoms: _343  and  _344
REMARK  141  A    between atoms: _347  and  _349
REMARK  142  A    between atoms: _349  and  _350
REMARK  143  A    between atoms: _349  and  _352
REMARK  144  A    between atoms: _352  and  _353
REMARK  145  A    between atoms: _356  and  _358
REMARK  146  A    between atoms: _358  and  _359
REMARK  147  A    between atoms: _358  and  _361
REMARK  148  A    between atoms: _361  and  _362
REMARK  149  A    between atoms: _365  and  _367
REMARK  150  A    between atoms: _367  and  _368
REMARK  151  A    between atoms: _367  and  _370
REMARK  152  A    between atoms: _370  and  _371
REMARK  153  A    between atoms: _374  and  _376
REMARK  154  A    between atoms: _376  and  _377
REMARK  155  A    between atoms: _376  and  _379
REMARK  156  A    between atoms: _382  and  _384
REMARK  157  A    between atoms: _384  and  _385
REMARK  158  A    between atoms: _384  and  _387
REMARK  159  A    between atoms: _387  and  _388
REMARK  160  A    between atoms: _391  and  _393
REMARK  161  A    between atoms: _393  and  _394
REMARK  162  A    between atoms: _393  and  _396
REMARK  163  A    between atoms: _396  and  _397
REMARK  164  A    between atoms: _397  and  _398
REMARK  165  A    between atoms: _398  and  _399
REMARK  166  A    between atoms: _399  and  _400
REMARK  167  A    between atoms: _404  and  _406
REMARK  168  A    between atoms: _406  and  _407
REMARK  169  A    between atoms: _406  and  _409
REMARK  170  A    between atoms: _409  and  _410
REMARK  171  A    between atoms: _410  and  _411
REMARK  172  A    between atoms: _413  and  _415
REMARK  173  A    between atoms: _415  and  _416
REMARK  174  A    between atoms: _415  and  _418
REMARK  175  A    between atoms: _418  and  _419
REMARK  176  A    between atoms: _422  and  _424
REMARK  177  A    between atoms: _424  and  _425
REMARK  178  A    between atoms: _427  and  _429
REMARK  179  A    between atoms: _429  and  _430
REMARK  180  A    between atoms: _432  and  _434
REMARK  181  A    between atoms: _434  and  _435
REMARK  182  A    between atoms: _434  and  _437
REMARK  183  A    between atoms: _437  and  _438
REMARK  184  A    between atoms: _441  and  _443
REMARK  185  A    between atoms: _443  and  _444
REMARK  186  A    between atoms: _446  and  _448
REMARK  187  A    between atoms: _448  and  _449
REMARK  188  A    between atoms: _451  and  _453
REMARK  189  A    between atoms: _453  and  _454
REMARK  190  A    between atoms: _453  and  _456
REMARK  191  A    between atoms: _456  and  _457
REMARK  192  A    between atoms: _463  and  _465
REMARK  193  A    between atoms: _465  and  _466
REMARK  194  A    between atoms: _465  and  _468
REMARK  195  A    between atoms: _468  and  _469
REMARK  196  A    between atoms: _472  and  _474
REMARK  197  A    between atoms: _474  and  _475
REMARK  198  A    between atoms: _474  and  _477
REMARK  199  A    between atoms: _480  and  _482
REMARK  200  A    between atoms: _482  and  _483
REMARK  201  A    between atoms: _482  and  _485
REMARK  202  A    between atoms: _485  and  _486
REMARK  203  A    between atoms: _489  and  _491
REMARK  204  A    between atoms: _491  and  _492
REMARK  205  A    between atoms: _491  and  _494
REMARK  206  A    between atoms: _494  and  _495
REMARK  207  A    between atoms: _499  and  _500
REMARK  208  A    between atoms: _505  and  _507
REMARK  209  A    between atoms: _507  and  _508
REMARK  210  A    between atoms: _507  and  _510
REMARK  211  A    between atoms: _513  and  _515
REMARK  212  A    between atoms: _515  and  _516
REMARK  213  A    between atoms: _515  and  _518
REMARK  214  A    between atoms: _518  and  _519
REMARK  215  A    between atoms: _524  and  _526
REMARK  216  A    between atoms: _526  and  _527
REMARK  217  A    between atoms: _526  and  _529
REMARK  218  A    between atoms: _529  and  _530
REMARK  219  A    between atoms: _533  and  _535
REMARK  220  A    between atoms: _535  and  _536
REMARK  221  A    between atoms: _535  and  _538
REMARK  222  A    between atoms: _538  and  _539
REMARK  223  A    between atoms: _542  and  _544
REMARK  224  A    between atoms: _544  and  _545
REMARK  225  A    between atoms: _547  and  _549
REMARK  226  A    between atoms: _549  and  _550
REMARK  227  A    between atoms: _549  and  _552
REMARK  228  A    between atoms: _552  and  _553
REMARK  229  A    between atoms: _553  and  _554
REMARK  230  A    between atoms: _554  and  _555
REMARK  231  A    between atoms: _564  and  _566
REMARK  232  A    between atoms: _566  and  _567
REMARK  233  A    between atoms: _566  and  _569
REMARK  234  A    between atoms: _569  and  _570
REMARK                            x       y       z     vdW  Elec       q    Type
REMARK                         _______ _______ _______ _____ _____    ______ ____
ROOT
ATOM      1  O   HOH     1      10.884  30.694   1.614  0.00  0.00    +0.000 OA
ENDROOT
TORSDOF 0
REMARK  Name = ../refined-set-2016/4mc2/4mc2_pocket.pdb
REMARK  234 active torsions:
REMARK  status: ('A' for Active; 'I' for Inactive)
REMARK    1  A    between atoms: _1  and  _3
REMARK    2  A    between atoms: _3  and  _4
REMARK    3  A    between atoms: _3  and  _6
REMARK    4  A    between atoms: _6  and  _7
REMARK    5  A    between atoms: _7  and  _8
REMARK    6  A    between atoms: _8  and  _9
REMARK    7  A    between atoms: _18  and  _20
REMARK    8  A    between atoms: _20  and  _21
REMARK    9  A    between atoms: _20  and  _23
REMARK   10  A    between atoms: _23  and  _24
REMARK   11  A    between atoms: _27  and  _29
REMARK   12  A    between atoms: _29  and  _30
REMARK   13  A    between atoms: _29  and  _32
REMARK   14  A    between atoms: _32  and  _33
REMARK   15  A    between atoms: _36  and  _38
REMARK   16  A    between atoms: _38  and  _39
REMARK   17  A    between atoms: _38  and  _41
REMARK   18  A    between atoms: _41  and  _42
REMARK   19  A    between atoms: _45  and  _47
REMARK   20  A    between atoms: _47  and  _48
REMARK   21  A    between atoms: _47  and  _50
REMARK   22  A    between atoms: _50  and  _51
REMARK   23  A    between atoms: _54  and  _56
REMARK   24  A    between atoms: _56  and  _57
REMARK   25  A    between atoms: _59  and  _61
REMARK   26  A    between atoms: _61  and  _62
REMARK   27  A    between atoms: _65  and  _67
REMARK   28  A    between atoms: _67  and  _68
REMARK   29  A    between atoms: _67  and  _70
REMARK   30  A    between atoms: _70  and  _71
REMARK   31  A    between atoms: _74  and  _76
REMARK   32  A    between atoms: _76  and  _77
REMARK   33  A    between atoms: _76  and  _79
REMARK   34  A    between atoms: _79  and  _80
REMARK   35  A    between atoms: _83  and  _85
REMARK   36  A    between atoms: _85  and  _86
REMARK   37  A    between atoms: _85  and  _88
REMARK   38  A    between atoms: _88  and  _89
REMARK   39  A    between atoms: _92  and  _94
REMARK   40  A    between atoms: _94  and  _95
REMARK   41  A    between atoms: _94  and  _97
REMARK   42  A    between atoms: _100  and  _102
REMARK   43  A    between atoms: _102  and  _103
REMARK   44  A    between atoms: _102  and  _105
REMARK   45  A    between atoms: _105  and  _106
REMARK   46  A    between atoms: _106  and  _107
REMARK   47  A    between atoms: _107  and  _108
REMARK   48  A    between atoms: _108  and  _109
REMARK   49  A    between atoms: _113  and  _115
REMARK   50  A    between atoms: _115  and  _116
REMARK   51  A    between atoms: _115  and  _118
REMARK   52  A    between atoms: _118  and  _119
REMARK   53  A    between atoms: _119  and  _120
REMARK   54  A    between atoms: _122  and  _124
REMARK   55  A    between atoms: _124  and  _125
REMARK   56  A    between atoms: _124  and  _127
REMARK   57  A    between atoms: _127  and  _128
REMARK   58  A    between atoms: _131  and  _133
REMARK   59  A    between atoms: _133  and  _134
REMARK   60  A    between atoms: _136  and  _138
REMARK   61  A    between atoms: _138  and  _139
REMARK   62  A    between atoms: _141  and  _143
REMARK   63  A    between atoms: _143  and  _144
REMARK   64  A    between atoms: _143  and  _146
REMARK   65  A    between atoms: _146  and  _147
REMARK   66  A    between atoms: _150  and  _152
REMARK   67  A    between atoms: _152  and  _153
REMARK   68  A    between atoms: _155  and  _157
REMARK   69  A    between atoms: _157  and  _158
REMARK   70  A    between atoms: _160  and  _162
REMARK   71  A    between atoms: _162  and  _163
REMARK   72  A    between atoms: _162  and  _165
REMARK   73  A    between atoms: _165  and  _166
REMARK   74  A    between atoms: _172  and  _174
REMARK   75  A    between atoms: _174  and  _175
REMARK   76  A    between atoms: _174  and  _177
REMARK   77  A    between atoms: _177  and  _178
REMARK   78  A    between atoms: _181  and  _183
REMARK   79  A    between atoms: _183  and  _184
REMARK   80  A    between atoms: _183  and  _186
REMARK   81  A    between atoms: _186  and  _187
REMARK   82  A    between atoms: _191  and  _192
REMARK   83  A    between atoms: _197  and  _199
REMARK   84  A    between atoms: _199  and  _200
REMARK   85  A    between atoms: _199  and  _202
REMARK   86  A    between atoms: _202  and  _203
REMARK   87  A    between atoms: _207  and  _208
REMARK   88  A    between atoms: _213  and  _215
REMARK   89  A    between atoms: _215  and  _216
REMARK   90  A    between atoms: _215  and  _218
REMARK   91  A    between atoms: _221  and  _223
REMARK   92  A    between atoms: _223  and  _224
REMARK   93  A    between atoms: _223  and  _226
REMARK   94  A    between atoms: _226  and  _227
REMARK   95  A    between atoms: _232  and  _234
REMARK   96  A    between atoms: _234  and  _235
REMARK   97  A    between atoms: _234  and  _237
REMARK   98  A    between atoms: _237  and  _238
REMARK   99  A    between atoms: _241  and  _243
REMARK  100  A    between atoms: _243  and  _244
REMARK  101  A    between atoms: _243  and  _246
REMARK  102  A    between atoms: _246  and  _247
REMARK  103  A    between atoms: _250  and  _252
REMARK  104  A    between atoms: _252  and  _253
REMARK  105  A    between atoms: _255  and  _257
REMARK  106  A    between atoms: _257  and  _258
REMARK  107  A    between atoms: _257  and  _260
REMARK  108  A    between atoms: _260  and  _261
REMARK  109  A    between atoms: _261  and  _262
REMARK  110  A    between atoms: _262  and  _263
REMARK  111  A    between atoms: _272  and  _274
REMARK  112  A    between atoms: _274  and  _275
REMARK  113  A    between atoms: _274  and  _277
REMARK  114  A    between atoms: _277  and  _278
REMARK  115  A    between atoms: _283  and  _285
REMARK  116  A    between atoms: _285  and  _286
REMARK  117  A    between atoms: _285  and  _288
REMARK  118  A    between atoms: _288  and  _289
REMARK  119  A    between atoms: _289  and  _290
REMARK  120  A    between atoms: _290  and  _291
REMARK  121  A    between atoms: _300  and  _302
REMARK  122  A    between atoms: _302  and  _303
REMARK  123  A    between atoms: _302  and  _305
REMARK  124  A    between atoms: _305  and  _306
REMARK  125  A    between atoms: _309  and  _311
REMARK  126  A    between atoms: _311  and  _312
REMARK  127  A    between atoms: _311  and  _314
REMARK  128  A    between atoms: _314  and  _315
REMARK  129  A    between atoms: _318  and  _320
REMARK  130  A    between atoms: _320  and  _321
REMARK  131  A    between atoms: _320  and  _323
REMARK  132  A    between atoms: _323  and  _324
REMARK  133  A    between atoms: _327  and  _329
REMARK  134  A    between atoms: _329  and  _330
REMARK  135  A    between atoms: _329  and  _332
REMARK  136  A    between atoms: _332  and  _333
REMARK  137  A    between atoms: _336  and  _338
REMARK  138  A    between atoms: _338  and  _339
REMARK  139  A    between atoms: _341  and  _343
REMARK  140  A    between atoms: _343  and  _344
REMARK  141  A    between atoms: _347  and  _349
REMARK  142  A    between atoms: _349  and  _350
REMARK  143  A    between atoms: _349  and  _352
REMARK  144  A    between atoms: _352  and  _353
REMARK  145  A    between atoms: _356  and  _358
REMARK  146  A    between atoms: _358  and  _359
REMARK  147  A    between atoms: _358  and  _361
REMARK  148  A    between atoms: _361  and  _362
REMARK  149  A    between atoms: _365  and  _367
REMARK  150  A    between atoms: _367  and  _368
REMARK  151  A    between atoms: _367  and  _370
REMARK  152  A    between atoms: _370  and  _371
REMARK  153  A    between atoms: _374  and  _376
REMARK  154  A    between atoms: _376  and  _377
REMARK  155  A    between atoms: _376  and  _379
REMARK  156  A    between atoms: _382  and  _384
REMARK  157  A    between atoms: _384  and  _385
REMARK  158  A    between atoms: _384  and  _387
REMARK  159  A    between atoms: _387  and  _388
REMARK  160  A    between atoms: _391  and  _393
REMARK  161  A    between atoms: _393  and  _394
REMARK  162  A    between atoms: _393  and  _396
REMARK  163  A    between atoms: _396  and  _397
REMARK  164  A    between atoms: _397  and  _398
REMARK  165  A    between atoms: _398  and  _399
REMARK  166  A    between atoms: _399  and  _400
REMARK  167  A    between atoms: _404  and  _406
REMARK  168  A    between atoms: _406  and  _407
REMARK  169  A    between atoms: _406  and  _409
REMARK  170  A    between atoms: _409  and  _410
REMARK  171  A    between atoms: _410  and  _411
REMARK  172  A    between atoms: _413  and  _415
REMARK  173  A    between atoms: _415  and  _416
REMARK  174  A    between atoms: _415  and  _418
REMARK  175  A    between atoms: _418  and  _419
REMARK  176  A    between atoms: _422  and  _424
REMARK  177  A    between atoms: _424  and  _425
REMARK  178  A    between atoms: _427  and  _429
REMARK  179  A    between atoms: _429  and  _430
REMARK  180  A    between atoms: _432  and  _434
REMARK  181  A    between atoms: _434  and  _435
REMARK  182  A    between atoms: _434  and  _437
REMARK  183  A    between atoms: _437  and  _438
REMARK  184  A    between atoms: _441  and  _443
REMARK  185  A    between atoms: _443  and  _444
REMARK  186  A    between atoms: _446  and  _448
REMARK  187  A    between atoms: _448  and  _449
REMARK  188  A    between atoms: _451  and  _453
REMARK  189  A    between atoms: _453  and  _454
REMARK  190  A    between atoms: _453  and  _456
REMARK  191  A    between atoms: _456  and  _457
REMARK  192  A    between atoms: _463  and  _465
REMARK  193  A    between atoms: _465  and  _466
REMARK  194  A    between atoms: _465  and  _468
REMARK  195  A    between atoms: _468  and  _469
REMARK  196  A    between atoms: _472  and  _474
REMARK  197  A    between atoms: _474  and  _475
REMARK  198  A    between atoms: _474  and  _477
REMARK  199  A    between atoms: _480  and  _482
REMARK  200  A    between atoms: _482  and  _483
REMARK  201  A    between atoms: _482  and  _485
REMARK  202  A    between atoms: _485  and  _486
REMARK  203  A    between atoms: _489  and  _491
REMARK  204  A    between atoms: _491  and  _492
REMARK  205  A    between atoms: _491  and  _494
REMARK  206  A    between atoms: _494  and  _495
REMARK  207  A    between atoms: _499  and  _500
REMARK  208  A    between atoms: _505  and  _507
REMARK  209  A    between atoms: _507  and  _508
REMARK  210  A    between atoms: _507  and  _510
REMARK  211  A    between atoms: _513  and  _515
REMARK  212  A    between atoms: _515  and  _516
REMARK  213  A    between atoms: _515  and  _518
REMARK  214  A    between atoms: _518  and  _519
REMARK  215  A    between atoms: _524  and  _526
REMARK  216  A    between atoms: _526  and  _527
REMARK  217  A    between atoms: _526  and  _529
REMARK  218  A    between atoms: _529  and  _530
REMARK  219  A    between atoms: _533  and  _535
REMARK  220  A    between atoms: _535  and  _536
REMARK  221  A    between atoms: _535  and  _538
REMARK  222  A    between atoms: _538  and  _539
REMARK  223  A    between atoms: _542  and  _544
REMARK  224  A    between atoms: _544  and  _545
REMARK  225  A    between atoms: _547  and  _549
REMARK  226  A    between atoms: _549  and  _550
REMARK  227  A    between atoms: _549  and  _552
REMARK  228  A    between atoms: _552  and  _553
REMARK  229  A    between atoms: _553  and  _554
REMARK  230  A    between atoms: _554  and  _555
REMARK  231  A    between atoms: _564  and  _566
REMARK  232  A    between atoms: _566  and  _567
REMARK  233  A    between atoms: _566  and  _569
REMARK  234  A    between atoms: _569  and  _570
REMARK                            x       y       z     vdW  Elec       q    Type
REMARK                         _______ _______ _______ _____ _____    ______ ____
ROOT
ATOM      1  O   HOH     1       6.837  34.633  10.587  0.00  0.00    +0.000 OA
ENDROOT
TORSDOF 0
REMARK  Name = ../refined-set-2016/4mc2/4mc2_pocket.pdb
REMARK  234 active torsions:
REMARK  status: ('A' for Active; 'I' for Inactive)
REMARK    1  A    between atoms: _1  and  _3
REMARK    2  A    between atoms: _3  and  _4
REMARK    3  A    between atoms: _3  and  _6
REMARK    4  A    between atoms: _6  and  _7
REMARK    5  A    between atoms: _7  and  _8
REMARK    6  A    between atoms: _8  and  _9
REMARK    7  A    between atoms: _18  and  _20
REMARK    8  A    between atoms: _20  and  _21
REMARK    9  A    between atoms: _20  and  _23
REMARK   10  A    between atoms: _23  and  _24
REMARK   11  A    between atoms: _27  and  _29
REMARK   12  A    between atoms: _29  and  _30
REMARK   13  A    between atoms: _29  and  _32
REMARK   14  A    between atoms: _32  and  _33
REMARK   15  A    between atoms: _36  and  _38
REMARK   16  A    between atoms: _38  and  _39
REMARK   17  A    between atoms: _38  and  _41
REMARK   18  A    between atoms: _41  and  _42
REMARK   19  A    between atoms: _45  and  _47
REMARK   20  A    between atoms: _47  and  _48
REMARK   21  A    between atoms: _47  and  _50
REMARK   22  A    between atoms: _50  and  _51
REMARK   23  A    between atoms: _54  and  _56
REMARK   24  A    between atoms: _56  and  _57
REMARK   25  A    between atoms: _59  and  _61
REMARK   26  A    between atoms: _61  and  _62
REMARK   27  A    between atoms: _65  and  _67
REMARK   28  A    between atoms: _67  and  _68
REMARK   29  A    between atoms: _67  and  _70
REMARK   30  A    between atoms: _70  and  _71
REMARK   31  A    between atoms: _74  and  _76
REMARK   32  A    between atoms: _76  and  _77
REMARK   33  A    between atoms: _76  and  _79
REMARK   34  A    between atoms: _79  and  _80
REMARK   35  A    between atoms: _83  and  _85
REMARK   36  A    between atoms: _85  and  _86
REMARK   37  A    between atoms: _85  and  _88
REMARK   38  A    between atoms: _88  and  _89
REMARK   39  A    between atoms: _92  and  _94
REMARK   40  A    between atoms: _94  and  _95
REMARK   41  A    between atoms: _94  and  _97
REMARK   42  A    between atoms: _100  and  _102
REMARK   43  A    between atoms: _102  and  _103
REMARK   44  A    between atoms: _102  and  _105
REMARK   45  A    between atoms: _105  and  _106
REMARK   46  A    between atoms: _106  and  _107
REMARK   47  A    between atoms: _107  and  _108
REMARK   48  A    between atoms: _108  and  _109
REMARK   49  A    between atoms: _113  and  _115
REMARK   50  A    between atoms: _115  and  _116
REMARK   51  A    between atoms: _115  and  _118
REMARK   52  A    between atoms: _118  and  _119
REMARK   53  A    between atoms: _119  and  _120
REMARK   54  A    between atoms: _122  and  _124
REMARK   55  A    between atoms: _124  and  _125
REMARK   56  A    between atoms: _124  and  _127
REMARK   57  A    between atoms: _127  and  _128
REMARK   58  A    between atoms: _131  and  _133
REMARK   59  A    between atoms: _133  and  _134
REMARK   60  A    between atoms: _136  and  _138
REMARK   61  A    between atoms: _138  and  _139
REMARK   62  A    between atoms: _141  and  _143
REMARK   63  A    between atoms: _143  and  _144
REMARK   64  A    between atoms: _143  and  _146
REMARK   65  A    between atoms: _146  and  _147
REMARK   66  A    between atoms: _150  and  _152
REMARK   67  A    between atoms: _152  and  _153
REMARK   68  A    between atoms: _155  and  _157
REMARK   69  A    between atoms: _157  and  _158
REMARK   70  A    between atoms: _160  and  _162
REMARK   71  A    between atoms: _162  and  _163
REMARK   72  A    between atoms: _162  and  _165
REMARK   73  A    between atoms: _165  and  _166
REMARK   74  A    between atoms: _172  and  _174
REMARK   75  A    between atoms: _174  and  _175
REMARK   76  A    between atoms: _174  and  _177
REMARK   77  A    between atoms: _177  and  _178
REMARK   78  A    between atoms: _181  and  _183
REMARK   79  A    between atoms: _183  and  _184
REMARK   80  A    between atoms: _183  and  _186
REMARK   81  A    between atoms: _186  and  _187
REMARK   82  A    between atoms: _191  and  _192
REMARK   83  A    between atoms: _197  and  _199
REMARK   84  A    between atoms: _199  and  _200
REMARK   85  A    between atoms: _199  and  _202
REMARK   86  A    between atoms: _202  and  _203
REMARK   87  A    between atoms: _207  and  _208
REMARK   88  A    between atoms: _213  and  _215
REMARK   89  A    between atoms: _215  and  _216
REMARK   90  A    between atoms: _215  and  _218
REMARK   91  A    between atoms: _221  and  _223
REMARK   92  A    between atoms: _223  and  _224
REMARK   93  A    between atoms: _223  and  _226
REMARK   94  A    between atoms: _226  and  _227
REMARK   95  A    between atoms: _232  and  _234
REMARK   96  A    between atoms: _234  and  _235
REMARK   97  A    between atoms: _234  and  _237
REMARK   98  A    between atoms: _237  and  _238
REMARK   99  A    between atoms: _241  and  _243
REMARK  100  A    between atoms: _243  and  _244
REMARK  101  A    between atoms: _243  and  _246
REMARK  102  A    between atoms: _246  and  _247
REMARK  103  A    between atoms: _250  and  _252
REMARK  104  A    between atoms: _252  and  _253
REMARK  105  A    between atoms: _255  and  _257
REMARK  106  A    between atoms: _257  and  _258
REMARK  107  A    between atoms: _257  and  _260
REMARK  108  A    between atoms: _260  and  _261
REMARK  109  A    between atoms: _261  and  _262
REMARK  110  A    between atoms: _262  and  _263
REMARK  111  A    between atoms: _272  and  _274
REMARK  112  A    between atoms: _274  and  _275
REMARK  113  A    between atoms: _274  and  _277
REMARK  114  A    between atoms: _277  and  _278
REMARK  115  A    between atoms: _283  and  _285
REMARK  116  A    between atoms: _285  and  _286
REMARK  117  A    between atoms: _285  and  _288
REMARK  118  A    between atoms: _288  and  _289
REMARK  119  A    between atoms: _289  and  _290
REMARK  120  A    between atoms: _290  and  _291
REMARK  121  A    between atoms: _300  and  _302
REMARK  122  A    between atoms: _302  and  _303
REMARK  123  A    between atoms: _302  and  _305
REMARK  124  A    between atoms: _305  and  _306
REMARK  125  A    between atoms: _309  and  _311
REMARK  126  A    between atoms: _311  and  _312
REMARK  127  A    between atoms: _311  and  _314
REMARK  128  A    between atoms: _314  and  _315
REMARK  129  A    between atoms: _318  and  _320
REMARK  130  A    between atoms: _320  and  _321
REMARK  131  A    between atoms: _320  and  _323
REMARK  132  A    between atoms: _323  and  _324
REMARK  133  A    between atoms: _327  and  _329
REMARK  134  A    between atoms: _329  and  _330
REMARK  135  A    between atoms: _329  and  _332
REMARK  136  A    between atoms: _332  and  _333
REMARK  137  A    between atoms: _336  and  _338
REMARK  138  A    between atoms: _338  and  _339
REMARK  139  A    between atoms: _341  and  _343
REMARK  140  A    between atoms: _343  and  _344
REMARK  141  A    between atoms: _347  and  _349
REMARK  142  A    between atoms: _349  and  _350
REMARK  143  A    between atoms: _349  and  _352
REMARK  144  A    between atoms: _352  and  _353
REMARK  145  A    between atoms: _356  and  _358
REMARK  146  A    between atoms: _358  and  _359
REMARK  147  A    between atoms: _358  and  _361
REMARK  148  A    between atoms: _361  and  _362
REMARK  149  A    between atoms: _365  and  _367
REMARK  150  A    between atoms: _367  and  _368
REMARK  151  A    between atoms: _367  and  _370
REMARK  152  A    between atoms: _370  and  _371
REMARK  153  A    between atoms: _374  and  _376
REMARK  154  A    between atoms: _376  and  _377
REMARK  155  A    between atoms: _376  and  _379
REMARK  156  A    between atoms: _382  and  _384
REMARK  157  A    between atoms: _384  and  _385
REMARK  158  A    between atoms: _384  and  _387
REMARK  159  A    between atoms: _387  and  _388
REMARK  160  A    between atoms: _391  and  _393
REMARK  161  A    between atoms: _393  and  _394
REMARK  162  A    between atoms: _393  and  _396
REMARK  163  A    between atoms: _396  and  _397
REMARK  164  A    between atoms: _397  and  _398
REMARK  165  A    between atoms: _398  and  _399
REMARK  166  A    between atoms: _399  and  _400
REMARK  167  A    between atoms: _404  and  _406
REMARK  168  A    between atoms: _406  and  _407
REMARK  169  A    between atoms: _406  and  _409
REMARK  170  A    between atoms: _409  and  _410
REMARK  171  A    between atoms: _410  and  _411
REMARK  172  A    between atoms: _413  and  _415
REMARK  173  A    between atoms: _415  and  _416
REMARK  174  A    between atoms: _415  and  _418
REMARK  175  A    between atoms: _418  and  _419
REMARK  176  A    between atoms: _422  and  _424
REMARK  177  A    between atoms: _424  and  _425
REMARK  178  A    between atoms: _427  and  _429
REMARK  179  A    between atoms: _429  and  _430
REMARK  180  A    between atoms: _432  and  _434
REMARK  181  A    between atoms: _434  and  _435
REMARK  182  A    between atoms: _434  and  _437
REMARK  183  A    between atoms: _437  and  _438
REMARK  184  A    between atoms: _441  and  _443
REMARK  185  A    between atoms: _443  and  _444
REMARK  186  A    between atoms: _446  and  _448
REMARK  187  A    between atoms: _448  and  _449
REMARK  188  A    between atoms: _451  and  _453
REMARK  189  A    between atoms: _453  and  _454
REMARK  190  A    between atoms: _453  and  _456
REMARK  191  A    between atoms: _456  and  _457
REMARK  192  A    between atoms: _463  and  _465
REMARK  193  A    between atoms: _465  and  _466
REMARK  194  A    between atoms: _465  and  _468
REMARK  195  A    between atoms: _468  and  _469
REMARK  196  A    between atoms: _472  and  _474
REMARK  197  A    between atoms: _474  and  _475
REMARK  198  A    between atoms: _474  and  _477
REMARK  199  A    between atoms: _480  and  _482
REMARK  200  A    between atoms: _482  and  _483
REMARK  201  A    between atoms: _482  and  _485
REMARK  202  A    between atoms: _485  and  _486
REMARK  203  A    between atoms: _489  and  _491
REMARK  204  A    between atoms: _491  and  _492
REMARK  205  A    between atoms: _491  and  _494
REMARK  206  A    between atoms: _494  and  _495
REMARK  207  A    between atoms: _499  and  _500
REMARK  208  A    between atoms: _505  and  _507
REMARK  209  A    between atoms: _507  and  _508
REMARK  210  A    between atoms: _507  and  _510
REMARK  211  A    between atoms: _513  and  _515
REMARK  212  A    between atoms: _515  and  _516
REMARK  213  A    between atoms: _515  and  _518
REMARK  214  A    between atoms: _518  and  _519
REMARK  215  A    between atoms: _524  and  _526
REMARK  216  A    between atoms: _526  and  _527
REMARK  217  A    between atoms: _526  and  _529
REMARK  218  A    between atoms: _529  and  _530
REMARK  219  A    between atoms: _533  and  _535
REMARK  220  A    between atoms: _535  and  _536
REMARK  221  A    between atoms: _535  and  _538
REMARK  222  A    between atoms: _538  and  _539
REMARK  223  A    between atoms: _542  and  _544
REMARK  224  A    between atoms: _544  and  _545
REMARK  225  A    between atoms: _547  and  _549
REMARK  226  A    between atoms: _549  and  _550
REMARK  227  A    between atoms: _549  and  _552
REMARK  228  A    between atoms: _552  and  _553
REMARK  229  A    between atoms: _553  and  _554
REMARK  230  A    between atoms: _554  and  _555
REMARK  231  A    between atoms: _564  and  _566
REMARK  232  A    between atoms: _566  and  _567
REMARK  233  A    between atoms: _566  and  _569
REMARK  234  A    between atoms: _569  and  _570
REMARK                            x       y       z     vdW  Elec       q    Type
REMARK                         _______ _______ _______ _____ _____    ______ ____
ROOT
ATOM      1  O   HOH     1      22.442  23.174  14.468  0.00  0.00    +0.000 OA
ENDROOT
TORSDOF 0
REMARK  Name = ../refined-set-2016/4mc2/4mc2_pocket.pdb
REMARK  234 active torsions:
REMARK  status: ('A' for Active; 'I' for Inactive)
REMARK    1  A    between atoms: _1  and  _3
REMARK    2  A    between atoms: _3  and  _4
REMARK    3  A    between atoms: _3  and  _6
REMARK    4  A    between atoms: _6  and  _7
REMARK    5  A    between atoms: _7  and  _8
REMARK    6  A    between atoms: _8  and  _9
REMARK    7  A    between atoms: _18  and  _20
REMARK    8  A    between atoms: _20  and  _21
REMARK    9  A    between atoms: _20  and  _23
REMARK   10  A    between atoms: _23  and  _24
REMARK   11  A    between atoms: _27  and  _29
REMARK   12  A    between atoms: _29  and  _30
REMARK   13  A    between atoms: _29  and  _32
REMARK   14  A    between atoms: _32  and  _33
REMARK   15  A    between atoms: _36  and  _38
REMARK   16  A    between atoms: _38  and  _39
REMARK   17  A    between atoms: _38  and  _41
REMARK   18  A    between atoms: _41  and  _42
REMARK   19  A    between atoms: _45  and  _47
REMARK   20  A    between atoms: _47  and  _48
REMARK   21  A    between atoms: _47  and  _50
REMARK   22  A    between atoms: _50  and  _51
REMARK   23  A    between atoms: _54  and  _56
REMARK   24  A    between atoms: _56  and  _57
REMARK   25  A    between atoms: _59  and  _61
REMARK   26  A    between atoms: _61  and  _62
REMARK   27  A    between atoms: _65  and  _67
REMARK   28  A    between atoms: _67  and  _68
REMARK   29  A    between atoms: _67  and  _70
REMARK   30  A    between atoms: _70  and  _71
REMARK   31  A    between atoms: _74  and  _76
REMARK   32  A    between atoms: _76  and  _77
REMARK   33  A    between atoms: _76  and  _79
REMARK   34  A    between atoms: _79  and  _80
REMARK   35  A    between atoms: _83  and  _85
REMARK   36  A    between atoms: _85  and  _86
REMARK   37  A    between atoms: _85  and  _88
REMARK   38  A    between atoms: _88  and  _89
REMARK   39  A    between atoms: _92  and  _94
REMARK   40  A    between atoms: _94  and  _95
REMARK   41  A    between atoms: _94  and  _97
REMARK   42  A    between atoms: _100  and  _102
REMARK   43  A    between atoms: _102  and  _103
REMARK   44  A    between atoms: _102  and  _105
REMARK   45  A    between atoms: _105  and  _106
REMARK   46  A    between atoms: _106  and  _107
REMARK   47  A    between atoms: _107  and  _108
REMARK   48  A    between atoms: _108  and  _109
REMARK   49  A    between atoms: _113  and  _115
REMARK   50  A    between atoms: _115  and  _116
REMARK   51  A    between atoms: _115  and  _118
REMARK   52  A    between atoms: _118  and  _119
REMARK   53  A    between atoms: _119  and  _120
REMARK   54  A    between atoms: _122  and  _124
REMARK   55  A    between atoms: _124  and  _125
REMARK   56  A    between atoms: _124  and  _127
REMARK   57  A    between atoms: _127  and  _128
REMARK   58  A    between atoms: _131  and  _133
REMARK   59  A    between atoms: _133  and  _134
REMARK   60  A    between atoms: _136  and  _138
REMARK   61  A    between atoms: _138  and  _139
REMARK   62  A    between atoms: _141  and  _143
REMARK   63  A    between atoms: _143  and  _144
REMARK   64  A    between atoms: _143  and  _146
REMARK   65  A    between atoms: _146  and  _147
REMARK   66  A    between atoms: _150  and  _152
REMARK   67  A    between atoms: _152  and  _153
REMARK   68  A    between atoms: _155  and  _157
REMARK   69  A    between atoms: _157  and  _158
REMARK   70  A    between atoms: _160  and  _162
REMARK   71  A    between atoms: _162  and  _163
REMARK   72  A    between atoms: _162  and  _165
REMARK   73  A    between atoms: _165  and  _166
REMARK   74  A    between atoms: _172  and  _174
REMARK   75  A    between atoms: _174  and  _175
REMARK   76  A    between atoms: _174  and  _177
REMARK   77  A    between atoms: _177  and  _178
REMARK   78  A    between atoms: _181  and  _183
REMARK   79  A    between atoms: _183  and  _184
REMARK   80  A    between atoms: _183  and  _186
REMARK   81  A    between atoms: _186  and  _187
REMARK   82  A    between atoms: _191  and  _192
REMARK   83  A    between atoms: _197  and  _199
REMARK   84  A    between atoms: _199  and  _200
REMARK   85  A    between atoms: _199  and  _202
REMARK   86  A    between atoms: _202  and  _203
REMARK   87  A    between atoms: _207  and  _208
REMARK   88  A    between atoms: _213  and  _215
REMARK   89  A    between atoms: _215  and  _216
REMARK   90  A    between atoms: _215  and  _218
REMARK   91  A    between atoms: _221  and  _223
REMARK   92  A    between atoms: _223  and  _224
REMARK   93  A    between atoms: _223  and  _226
REMARK   94  A    between atoms: _226  and  _227
REMARK   95  A    between atoms: _232  and  _234
REMARK   96  A    between atoms: _234  and  _235
REMARK   97  A    between atoms: _234  and  _237
REMARK   98  A    between atoms: _237  and  _238
REMARK   99  A    between atoms: _241  and  _243
REMARK  100  A    between atoms: _243  and  _244
REMARK  101  A    between atoms: _243  and  _246
REMARK  102  A    between atoms: _246  and  _247
REMARK  103  A    between atoms: _250  and  _252
REMARK  104  A    between atoms: _252  and  _253
REMARK  105  A    between atoms: _255  and  _257
REMARK  106  A    between atoms: _257  and  _258
REMARK  107  A    between atoms: _257  and  _260
REMARK  108  A    between atoms: _260  and  _261
REMARK  109  A    between atoms: _261  and  _262
REMARK  110  A    between atoms: _262  and  _263
REMARK  111  A    between atoms: _272  and  _274
REMARK  112  A    between atoms: _274  and  _275
REMARK  113  A    between atoms: _274  and  _277
REMARK  114  A    between atoms: _277  and  _278
REMARK  115  A    between atoms: _283  and  _285
REMARK  116  A    between atoms: _285  and  _286
REMARK  117  A    between atoms: _285  and  _288
REMARK  118  A    between atoms: _288  and  _289
REMARK  119  A    between atoms: _289  and  _290
REMARK  120  A    between atoms: _290  and  _291
REMARK  121  A    between atoms: _300  and  _302
REMARK  122  A    between atoms: _302  and  _303
REMARK  123  A    between atoms: _302  and  _305
REMARK  124  A    between atoms: _305  and  _306
REMARK  125  A    between atoms: _309  and  _311
REMARK  126  A    between atoms: _311  and  _312
REMARK  127  A    between atoms: _311  and  _314
REMARK  128  A    between atoms: _314  and  _315
REMARK  129  A    between atoms: _318  and  _320
REMARK  130  A    between atoms: _320  and  _321
REMARK  131  A    between atoms: _320  and  _323
REMARK  132  A    between atoms: _323  and  _324
REMARK  133  A    between atoms: _327  and  _329
REMARK  134  A    between atoms: _329  and  _330
REMARK  135  A    between atoms: _329  and  _332
REMARK  136  A    between atoms: _332  and  _333
REMARK  137  A    between atoms: _336  and  _338
REMARK  138  A    between atoms: _338  and  _339
REMARK  139  A    between atoms: _341  and  _343
REMARK  140  A    between atoms: _343  and  _344
REMARK  141  A    between atoms: _347  and  _349
REMARK  142  A    between atoms: _349  and  _350
REMARK  143  A    between atoms: _349  and  _352
REMARK  144  A    between atoms: _352  and  _353
REMARK  145  A    between atoms: _356  and  _358
REMARK  146  A    between atoms: _358  and  _359
REMARK  147  A    between atoms: _358  and  _361
REMARK  148  A    between atoms: _361  and  _362
REMARK  149  A    between atoms: _365  and  _367
REMARK  150  A    between atoms: _367  and  _368
REMARK  151  A    between atoms: _367  and  _370
REMARK  152  A    between atoms: _370  and  _371
REMARK  153  A    between atoms: _374  and  _376
REMARK  154  A    between atoms: _376  and  _377
REMARK  155  A    between atoms: _376  and  _379
REMARK  156  A    between atoms: _382  and  _384
REMARK  157  A    between atoms: _384  and  _385
REMARK  158  A    between atoms: _384  and  _387
REMARK  159  A    between atoms: _387  and  _388
REMARK  160  A    between atoms: _391  and  _393
REMARK  161  A    between atoms: _393  and  _394
REMARK  162  A    between atoms: _393  and  _396
REMARK  163  A    between atoms: _396  and  _397
REMARK  164  A    between atoms: _397  and  _398
REMARK  165  A    between atoms: _398  and  _399
REMARK  166  A    between atoms: _399  and  _400
REMARK  167  A    between atoms: _404  and  _406
REMARK  168  A    between atoms: _406  and  _407
REMARK  169  A    between atoms: _406  and  _409
REMARK  170  A    between atoms: _409  and  _410
REMARK  171  A    between atoms: _410  and  _411
REMARK  172  A    between atoms: _413  and  _415
REMARK  173  A    between atoms: _415  and  _416
REMARK  174  A    between atoms: _415  and  _418
REMARK  175  A    between atoms: _418  and  _419
REMARK  176  A    between atoms: _422  and  _424
REMARK  177  A    between atoms: _424  and  _425
REMARK  178  A    between atoms: _427  and  _429
REMARK  179  A    between atoms: _429  and  _430
REMARK  180  A    between atoms: _432  and  _434
REMARK  181  A    between atoms: _434  and  _435
REMARK  182  A    between atoms: _434  and  _437
REMARK  183  A    between atoms: _437  and  _438
REMARK  184  A    between atoms: _441  and  _443
REMARK  185  A    between atoms: _443  and  _444
REMARK  186  A    between atoms: _446  and  _448
REMARK  187  A    between atoms: _448  and  _449
REMARK  188  A    between atoms: _451  and  _453
REMARK  189  A    between atoms: _453  and  _454
REMARK  190  A    between atoms: _453  and  _456
REMARK  191  A    between atoms: _456  and  _457
REMARK  192  A    between atoms: _463  and  _465
REMARK  193  A    between atoms: _465  and  _466
REMARK  194  A    between atoms: _465  and  _468
REMARK  195  A    between atoms: _468  and  _469
REMARK  196  A    between atoms: _472  and  _474
REMARK  197  A    between atoms: _474  and  _475
REMARK  198  A    between atoms: _474  and  _477
REMARK  199  A    between atoms: _480  and  _482
REMARK  200  A    between atoms: _482  and  _483
REMARK  201  A    between atoms: _482  and  _485
REMARK  202  A    between atoms: _485  and  _486
REMARK  203  A    between atoms: _489  and  _491
REMARK  204  A    between atoms: _491  and  _492
REMARK  205  A    between atoms: _491  and  _494
REMARK  206  A    between atoms: _494  and  _495
REMARK  207  A    between atoms: _499  and  _500
REMARK  208  A    between atoms: _505  and  _507
REMARK  209  A    between atoms: _507  and  _508
REMARK  210  A    between atoms: _507  and  _510
REMARK  211  A    between atoms: _513  and  _515
REMARK  212  A    between atoms: _515  and  _516
REMARK  213  A    between atoms: _515  and  _518
REMARK  214  A    between atoms: _518  and  _519
REMARK  215  A    between atoms: _524  and  _526
REMARK  216  A    between atoms: _526  and  _527
REMARK  217  A    between atoms: _526  and  _529
REMARK  218  A    between atoms: _529  and  _530
REMARK  219  A    between atoms: _533  and  _535
REMARK  220  A    between atoms: _535  and  _536
REMARK  221  A    between atoms: _535  and  _538
REMARK  222  A    between atoms: _538  and  _539
REMARK  223  A    between atoms: _542  and  _544
REMARK  224  A    between atoms: _544  and  _545
REMARK  225  A    between atoms: _547  and  _549
REMARK  226  A    between atoms: _549  and  _550
REMARK  227  A    between atoms: _549  and  _552
REMARK  228  A    between atoms: _552  and  _553
REMARK  229  A    between atoms: _553  and  _554
REMARK  230  A    between atoms: _554  and  _555
REMARK  231  A    between atoms: _564  and  _566
REMARK  232  A    between atoms: _566  and  _567
REMARK  233  A    between atoms: _566  and  _569
REMARK  234  A    between atoms: _569  and  _570
REMARK                            x       y       z     vdW  Elec       q    Type
REMARK                         _______ _______ _______ _____ _____    ______ ____
ROOT
ATOM      1  O   HOH     1      22.829  22.067  12.008  0.00  0.00    +0.000 OA
ENDROOT
TORSDOF 0
REMARK  Name = ../refined-set-2016/4mc2/4mc2_pocket.pdb
REMARK  234 active torsions:
REMARK  status: ('A' for Active; 'I' for Inactive)
REMARK    1  A    between atoms: _1  and  _3
REMARK    2  A    between atoms: _3  and  _4
REMARK    3  A    between atoms: _3  and  _6
REMARK    4  A    between atoms: _6  and  _7
REMARK    5  A    between atoms: _7  and  _8
REMARK    6  A    between atoms: _8  and  _9
REMARK    7  A    between atoms: _18  and  _20
REMARK    8  A    between atoms: _20  and  _21
REMARK    9  A    between atoms: _20  and  _23
REMARK   10  A    between atoms: _23  and  _24
REMARK   11  A    between atoms: _27  and  _29
REMARK   12  A    between atoms: _29  and  _30
REMARK   13  A    between atoms: _29  and  _32
REMARK   14  A    between atoms: _32  and  _33
REMARK   15  A    between atoms: _36  and  _38
REMARK   16  A    between atoms: _38  and  _39
REMARK   17  A    between atoms: _38  and  _41
REMARK   18  A    between atoms: _41  and  _42
REMARK   19  A    between atoms: _45  and  _47
REMARK   20  A    between atoms: _47  and  _48
REMARK   21  A    between atoms: _47  and  _50
REMARK   22  A    between atoms: _50  and  _51
REMARK   23  A    between atoms: _54  and  _56
REMARK   24  A    between atoms: _56  and  _57
REMARK   25  A    between atoms: _59  and  _61
REMARK   26  A    between atoms: _61  and  _62
REMARK   27  A    between atoms: _65  and  _67
REMARK   28  A    between atoms: _67  and  _68
REMARK   29  A    between atoms: _67  and  _70
REMARK   30  A    between atoms: _70  and  _71
REMARK   31  A    between atoms: _74  and  _76
REMARK   32  A    between atoms: _76  and  _77
REMARK   33  A    between atoms: _76  and  _79
REMARK   34  A    between atoms: _79  and  _80
REMARK   35  A    between atoms: _83  and  _85
REMARK   36  A    between atoms: _85  and  _86
REMARK   37  A    between atoms: _85  and  _88
REMARK   38  A    between atoms: _88  and  _89
REMARK   39  A    between atoms: _92  and  _94
REMARK   40  A    between atoms: _94  and  _95
REMARK   41  A    between atoms: _94  and  _97
REMARK   42  A    between atoms: _100  and  _102
REMARK   43  A    between atoms: _102  and  _103
REMARK   44  A    between atoms: _102  and  _105
REMARK   45  A    between atoms: _105  and  _106
REMARK   46  A    between atoms: _106  and  _107
REMARK   47  A    between atoms: _107  and  _108
REMARK   48  A    between atoms: _108  and  _109
REMARK   49  A    between atoms: _113  and  _115
REMARK   50  A    between atoms: _115  and  _116
REMARK   51  A    between atoms: _115  and  _118
REMARK   52  A    between atoms: _118  and  _119
REMARK   53  A    between atoms: _119  and  _120
REMARK   54  A    between atoms: _122  and  _124
REMARK   55  A    between atoms: _124  and  _125
REMARK   56  A    between atoms: _124  and  _127
REMARK   57  A    between atoms: _127  and  _128
REMARK   58  A    between atoms: _131  and  _133
REMARK   59  A    between atoms: _133  and  _134
REMARK   60  A    between atoms: _136  and  _138
REMARK   61  A    between atoms: _138  and  _139
REMARK   62  A    between atoms: _141  and  _143
REMARK   63  A    between atoms: _143  and  _144
REMARK   64  A    between atoms: _143  and  _146
REMARK   65  A    between atoms: _146  and  _147
REMARK   66  A    between atoms: _150  and  _152
REMARK   67  A    between atoms: _152  and  _153
REMARK   68  A    between atoms: _155  and  _157
REMARK   69  A    between atoms: _157  and  _158
REMARK   70  A    between atoms: _160  and  _162
REMARK   71  A    between atoms: _162  and  _163
REMARK   72  A    between atoms: _162  and  _165
REMARK   73  A    between atoms: _165  and  _166
REMARK   74  A    between atoms: _172  and  _174
REMARK   75  A    between atoms: _174  and  _175
REMARK   76  A    between atoms: _174  and  _177
REMARK   77  A    between atoms: _177  and  _178
REMARK   78  A    between atoms: _181  and  _183
REMARK   79  A    between atoms: _183  and  _184
REMARK   80  A    between atoms: _183  and  _186
REMARK   81  A    between atoms: _186  and  _187
REMARK   82  A    between atoms: _191  and  _192
REMARK   83  A    between atoms: _197  and  _199
REMARK   84  A    between atoms: _199  and  _200
REMARK   85  A    between atoms: _199  and  _202
REMARK   86  A    between atoms: _202  and  _203
REMARK   87  A    between atoms: _207  and  _208
REMARK   88  A    between atoms: _213  and  _215
REMARK   89  A    between atoms: _215  and  _216
REMARK   90  A    between atoms: _215  and  _218
REMARK   91  A    between atoms: _221  and  _223
REMARK   92  A    between atoms: _223  and  _224
REMARK   93  A    between atoms: _223  and  _226
REMARK   94  A    between atoms: _226  and  _227
REMARK   95  A    between atoms: _232  and  _234
REMARK   96  A    between atoms: _234  and  _235
REMARK   97  A    between atoms: _234  and  _237
REMARK   98  A    between atoms: _237  and  _238
REMARK   99  A    between atoms: _241  and  _243
REMARK  100  A    between atoms: _243  and  _244
REMARK  101  A    between atoms: _243  and  _246
REMARK  102  A    between atoms: _246  and  _247
REMARK  103  A    between atoms: _250  and  _252
REMARK  104  A    between atoms: _252  and  _253
REMARK  105  A    between atoms: _255  and  _257
REMARK  106  A    between atoms: _257  and  _258
REMARK  107  A    between atoms: _257  and  _260
REMARK  108  A    between atoms: _260  and  _261
REMARK  109  A    between atoms: _261  and  _262
REMARK  110  A    between atoms: _262  and  _263
REMARK  111  A    between atoms: _272  and  _274
REMARK  112  A    between atoms: _274  and  _275
REMARK  113  A    between atoms: _274  and  _277
REMARK  114  A    between atoms: _277  and  _278
REMARK  115  A    between atoms: _283  and  _285
REMARK  116  A    between atoms: _285  and  _286
REMARK  117  A    between atoms: _285  and  _288
REMARK  118  A    between atoms: _288  and  _289
REMARK  119  A    between atoms: _289  and  _290
REMARK  120  A    between atoms: _290  and  _291
REMARK  121  A    between atoms: _300  and  _302
REMARK  122  A    between atoms: _302  and  _303
REMARK  123  A    between atoms: _302  and  _305
REMARK  124  A    between atoms: _305  and  _306
REMARK  125  A    between atoms: _309  and  _311
REMARK  126  A    between atoms: _311  and  _312
REMARK  127  A    between atoms: _311  and  _314
REMARK  128  A    between atoms: _314  and  _315
REMARK  129  A    between atoms: _318  and  _320
REMARK  130  A    between atoms: _320  and  _321
REMARK  131  A    between atoms: _320  and  _323
REMARK  132  A    between atoms: _323  and  _324
REMARK  133  A    between atoms: _327  and  _329
REMARK  134  A    between atoms: _329  and  _330
REMARK  135  A    between atoms: _329  and  _332
REMARK  136  A    between atoms: _332  and  _333
REMARK  137  A    between atoms: _336  and  _338
REMARK  138  A    between atoms: _338  and  _339
REMARK  139  A    between atoms: _341  and  _343
REMARK  140  A    between atoms: _343  and  _344
REMARK  141  A    between atoms: _347  and  _349
REMARK  142  A    between atoms: _349  and  _350
REMARK  143  A    between atoms: _349  and  _352
REMARK  144  A    between atoms: _352  and  _353
REMARK  145  A    between atoms: _356  and  _358
REMARK  146  A    between atoms: _358  and  _359
REMARK  147  A    between atoms: _358  and  _361
REMARK  148  A    between atoms: _361  and  _362
REMARK  149  A    between atoms: _365  and  _367
REMARK  150  A    between atoms: _367  and  _368
REMARK  151  A    between atoms: _367  and  _370
REMARK  152  A    between atoms: _370  and  _371
REMARK  153  A    between atoms: _374  and  _376
REMARK  154  A    between atoms: _376  and  _377
REMARK  155  A    between atoms: _376  and  _379
REMARK  156  A    between atoms: _382  and  _384
REMARK  157  A    between atoms: _384  and  _385
REMARK  158  A    between atoms: _384  and  _387
REMARK  159  A    between atoms: _387  and  _388
REMARK  160  A    between atoms: _391  and  _393
REMARK  161  A    between atoms: _393  and  _394
REMARK  162  A    between atoms: _393  and  _396
REMARK  163  A    between atoms: _396  and  _397
REMARK  164  A    between atoms: _397  and  _398
REMARK  165  A    between atoms: _398  and  _399
REMARK  166  A    between atoms: _399  and  _400
REMARK  167  A    between atoms: _404  and  _406
REMARK  168  A    between atoms: _406  and  _407
REMARK  169  A    between atoms: _406  and  _409
REMARK  170  A    between atoms: _409  and  _410
REMARK  171  A    between atoms: _410  and  _411
REMARK  172  A    between atoms: _413  and  _415
REMARK  173  A    between atoms: _415  and  _416
REMARK  174  A    between atoms: _415  and  _418
REMARK  175  A    between atoms: _418  and  _419
REMARK  176  A    between atoms: _422  and  _424
REMARK  177  A    between atoms: _424  and  _425
REMARK  178  A    between atoms: _427  and  _429
REMARK  179  A    between atoms: _429  and  _430
REMARK  180  A    between atoms: _432  and  _434
REMARK  181  A    between atoms: _434  and  _435
REMARK  182  A    between atoms: _434  and  _437
REMARK  183  A    between atoms: _437  and  _438
REMARK  184  A    between atoms: _441  and  _443
REMARK  185  A    between atoms: _443  and  _444
REMARK  186  A    between atoms: _446  and  _448
REMARK  187  A    between atoms: _448  and  _449
REMARK  188  A    between atoms: _451  and  _453
REMARK  189  A    between atoms: _453  and  _454
REMARK  190  A    between atoms: _453  and  _456
REMARK  191  A    between atoms: _456  and  _457
REMARK  192  A    between atoms: _463  and  _465
REMARK  193  A    between atoms: _465  and  _466
REMARK  194  A    between atoms: _465  and  _468
REMARK  195  A    between atoms: _468  and  _469
REMARK  196  A    between atoms: _472  and  _474
REMARK  197  A    between atoms: _474  and  _475
REMARK  198  A    between atoms: _474  and  _477
REMARK  199  A    between atoms: _480  and  _482
REMARK  200  A    between atoms: _482  and  _483
REMARK  201  A    between atoms: _482  and  _485
REMARK  202  A    between atoms: _485  and  _486
REMARK  203  A    between atoms: _489  and  _491
REMARK  204  A    between atoms: _491  and  _492
REMARK  205  A    between atoms: _491  and  _494
REMARK  206  A    between atoms: _494  and  _495
REMARK  207  A    between atoms: _499  and  _500
REMARK  208  A    between atoms: _505  and  _507
REMARK  209  A    between atoms: _507  and  _508
REMARK  210  A    between atoms: _507  and  _510
REMARK  211  A    between atoms: _513  and  _515
REMARK  212  A    between atoms: _515  and  _516
REMARK  213  A    between atoms: _515  and  _518
REMARK  214  A    between atoms: _518  and  _519
REMARK  215  A    between atoms: _524  and  _526
REMARK  216  A    between atoms: _526  and  _527
REMARK  217  A    between atoms: _526  and  _529
REMARK  218  A    between atoms: _529  and  _530
REMARK  219  A    between atoms: _533  and  _535
REMARK  220  A    between atoms: _535  and  _536
REMARK  221  A    between atoms: _535  and  _538
REMARK  222  A    between atoms: _538  and  _539
REMARK  223  A    between atoms: _542  and  _544
REMARK  224  A    between atoms: _544  and  _545
REMARK  225  A    between atoms: _547  and  _549
REMARK  226  A    between atoms: _549  and  _550
REMARK  227  A    between atoms: _549  and  _552
REMARK  228  A    between atoms: _552  and  _553
REMARK  229  A    between atoms: _553  and  _554
REMARK  230  A    between atoms: _554  and  _555
REMARK  231  A    between atoms: _564  and  _566
REMARK  232  A    between atoms: _566  and  _567
REMARK  233  A    between atoms: _566  and  _569
REMARK  234  A    between atoms: _569  and  _570
REMARK                            x       y       z     vdW  Elec       q    Type
REMARK                         _______ _______ _______ _____ _____    ______ ____
ROOT
ATOM      1  O   HOH     1       3.298  25.967   7.094  0.00  0.00    +0.000 OA
ENDROOT
TORSDOF 0
REMARK  Name = ../refined-set-2016/4mc2/4mc2_pocket.pdb
REMARK  234 active torsions:
REMARK  status: ('A' for Active; 'I' for Inactive)
REMARK    1  A    between atoms: _1  and  _3
REMARK    2  A    between atoms: _3  and  _4
REMARK    3  A    between atoms: _3  and  _6
REMARK    4  A    between atoms: _6  and  _7
REMARK    5  A    between atoms: _7  and  _8
REMARK    6  A    between atoms: _8  and  _9
REMARK    7  A    between atoms: _18  and  _20
REMARK    8  A    between atoms: _20  and  _21
REMARK    9  A    between atoms: _20  and  _23
REMARK   10  A    between atoms: _23  and  _24
REMARK   11  A    between atoms: _27  and  _29
REMARK   12  A    between atoms: _29  and  _30
REMARK   13  A    between atoms: _29  and  _32
REMARK   14  A    between atoms: _32  and  _33
REMARK   15  A    between atoms: _36  and  _38
REMARK   16  A    between atoms: _38  and  _39
REMARK   17  A    between atoms: _38  and  _41
REMARK   18  A    between atoms: _41  and  _42
REMARK   19  A    between atoms: _45  and  _47
REMARK   20  A    between atoms: _47  and  _48
REMARK   21  A    between atoms: _47  and  _50
REMARK   22  A    between atoms: _50  and  _51
REMARK   23  A    between atoms: _54  and  _56
REMARK   24  A    between atoms: _56  and  _57
REMARK   25  A    between atoms: _59  and  _61
REMARK   26  A    between atoms: _61  and  _62
REMARK   27  A    between atoms: _65  and  _67
REMARK   28  A    between atoms: _67  and  _68
REMARK   29  A    between atoms: _67  and  _70
REMARK   30  A    between atoms: _70  and  _71
REMARK   31  A    between atoms: _74  and  _76
REMARK   32  A    between atoms: _76  and  _77
REMARK   33  A    between atoms: _76  and  _79
REMARK   34  A    between atoms: _79  and  _80
REMARK   35  A    between atoms: _83  and  _85
REMARK   36  A    between atoms: _85  and  _86
REMARK   37  A    between atoms: _85  and  _88
REMARK   38  A    between atoms: _88  and  _89
REMARK   39  A    between atoms: _92  and  _94
REMARK   40  A    between atoms: _94  and  _95
REMARK   41  A    between atoms: _94  and  _97
REMARK   42  A    between atoms: _100  and  _102
REMARK   43  A    between atoms: _102  and  _103
REMARK   44  A    between atoms: _102  and  _105
REMARK   45  A    between atoms: _105  and  _106
REMARK   46  A    between atoms: _106  and  _107
REMARK   47  A    between atoms: _107  and  _108
REMARK   48  A    between atoms: _108  and  _109
REMARK   49  A    between atoms: _113  and  _115
REMARK   50  A    between atoms: _115  and  _116
REMARK   51  A    between atoms: _115  and  _118
REMARK   52  A    between atoms: _118  and  _119
REMARK   53  A    between atoms: _119  and  _120
REMARK   54  A    between atoms: _122  and  _124
REMARK   55  A    between atoms: _124  and  _125
REMARK   56  A    between atoms: _124  and  _127
REMARK   57  A    between atoms: _127  and  _128
REMARK   58  A    between atoms: _131  and  _133
REMARK   59  A    between atoms: _133  and  _134
REMARK   60  A    between atoms: _136  and  _138
REMARK   61  A    between atoms: _138  and  _139
REMARK   62  A    between atoms: _141  and  _143
REMARK   63  A    between atoms: _143  and  _144
REMARK   64  A    between atoms: _143  and  _146
REMARK   65  A    between atoms: _146  and  _147
REMARK   66  A    between atoms: _150  and  _152
REMARK   67  A    between atoms: _152  and  _153
REMARK   68  A    between atoms: _155  and  _157
REMARK   69  A    between atoms: _157  and  _158
REMARK   70  A    between atoms: _160  and  _162
REMARK   71  A    between atoms: _162  and  _163
REMARK   72  A    between atoms: _162  and  _165
REMARK   73  A    between atoms: _165  and  _166
REMARK   74  A    between atoms: _172  and  _174
REMARK   75  A    between atoms: _174  and  _175
REMARK   76  A    between atoms: _174  and  _177
REMARK   77  A    between atoms: _177  and  _178
REMARK   78  A    between atoms: _181  and  _183
REMARK   79  A    between atoms: _183  and  _184
REMARK   80  A    between atoms: _183  and  _186
REMARK   81  A    between atoms: _186  and  _187
REMARK   82  A    between atoms: _191  and  _192
REMARK   83  A    between atoms: _197  and  _199
REMARK   84  A    between atoms: _199  and  _200
REMARK   85  A    between atoms: _199  and  _202
REMARK   86  A    between atoms: _202  and  _203
REMARK   87  A    between atoms: _207  and  _208
REMARK   88  A    between atoms: _213  and  _215
REMARK   89  A    between atoms: _215  and  _216
REMARK   90  A    between atoms: _215  and  _218
REMARK   91  A    between atoms: _221  and  _223
REMARK   92  A    between atoms: _223  and  _224
REMARK   93  A    between atoms: _223  and  _226
REMARK   94  A    between atoms: _226  and  _227
REMARK   95  A    between atoms: _232  and  _234
REMARK   96  A    between atoms: _234  and  _235
REMARK   97  A    between atoms: _234  and  _237
REMARK   98  A    between atoms: _237  and  _238
REMARK   99  A    between atoms: _241  and  _243
REMARK  100  A    between atoms: _243  and  _244
REMARK  101  A    between atoms: _243  and  _246
REMARK  102  A    between atoms: _246  and  _247
REMARK  103  A    between atoms: _250  and  _252
REMARK  104  A    between atoms: _252  and  _253
REMARK  105  A    between atoms: _255  and  _257
REMARK  106  A    between atoms: _257  and  _258
REMARK  107  A    between atoms: _257  and  _260
REMARK  108  A    between atoms: _260  and  _261
REMARK  109  A    between atoms: _261  and  _262
REMARK  110  A    between atoms: _262  and  _263
REMARK  111  A    between atoms: _272  and  _274
REMARK  112  A    between atoms: _274  and  _275
REMARK  113  A    between atoms: _274  and  _277
REMARK  114  A    between atoms: _277  and  _278
REMARK  115  A    between atoms: _283  and  _285
REMARK  116  A    between atoms: _285  and  _286
REMARK  117  A    between atoms: _285  and  _288
REMARK  118  A    between atoms: _288  and  _289
REMARK  119  A    between atoms: _289  and  _290
REMARK  120  A    between atoms: _290  and  _291
REMARK  121  A    between atoms: _300  and  _302
REMARK  122  A    between atoms: _302  and  _303
REMARK  123  A    between atoms: _302  and  _305
REMARK  124  A    between atoms: _305  and  _306
REMARK  125  A    between atoms: _309  and  _311
REMARK  126  A    between atoms: _311  and  _312
REMARK  127  A    between atoms: _311  and  _314
REMARK  128  A    between atoms: _314  and  _315
REMARK  129  A    between atoms: _318  and  _320
REMARK  130  A    between atoms: _320  and  _321
REMARK  131  A    between atoms: _320  and  _323
REMARK  132  A    between atoms: _323  and  _324
REMARK  133  A    between atoms: _327  and  _329
REMARK  134  A    between atoms: _329  and  _330
REMARK  135  A    between atoms: _329  and  _332
REMARK  136  A    between atoms: _332  and  _333
REMARK  137  A    between atoms: _336  and  _338
REMARK  138  A    between atoms: _338  and  _339
REMARK  139  A    between atoms: _341  and  _343
REMARK  140  A    between atoms: _343  and  _344
REMARK  141  A    between atoms: _347  and  _349
REMARK  142  A    between atoms: _349  and  _350
REMARK  143  A    between atoms: _349  and  _352
REMARK  144  A    between atoms: _352  and  _353
REMARK  145  A    between atoms: _356  and  _358
REMARK  146  A    between atoms: _358  and  _359
REMARK  147  A    between atoms: _358  and  _361
REMARK  148  A    between atoms: _361  and  _362
REMARK  149  A    between atoms: _365  and  _367
REMARK  150  A    between atoms: _367  and  _368
REMARK  151  A    between atoms: _367  and  _370
REMARK  152  A    between atoms: _370  and  _371
REMARK  153  A    between atoms: _374  and  _376
REMARK  154  A    between atoms: _376  and  _377
REMARK  155  A    between atoms: _376  and  _379
REMARK  156  A    between atoms: _382  and  _384
REMARK  157  A    between atoms: _384  and  _385
REMARK  158  A    between atoms: _384  and  _387
REMARK  159  A    between atoms: _387  and  _388
REMARK  160  A    between atoms: _391  and  _393
REMARK  161  A    between atoms: _393  and  _394
REMARK  162  A    between atoms: _393  and  _396
REMARK  163  A    between atoms: _396  and  _397
REMARK  164  A    between atoms: _397  and  _398
REMARK  165  A    between atoms: _398  and  _399
REMARK  166  A    between atoms: _399  and  _400
REMARK  167  A    between atoms: _404  and  _406
REMARK  168  A    between atoms: _406  and  _407
REMARK  169  A    between atoms: _406  and  _409
REMARK  170  A    between atoms: _409  and  _410
REMARK  171  A    between atoms: _410  and  _411
REMARK  172  A    between atoms: _413  and  _415
REMARK  173  A    between atoms: _415  and  _416
REMARK  174  A    between atoms: _415  and  _418
REMARK  175  A    between atoms: _418  and  _419
REMARK  176  A    between atoms: _422  and  _424
REMARK  177  A    between atoms: _424  and  _425
REMARK  178  A    between atoms: _427  and  _429
REMARK  179  A    between atoms: _429  and  _430
REMARK  180  A    between atoms: _432  and  _434
REMARK  181  A    between atoms: _434  and  _435
REMARK  182  A    between atoms: _434  and  _437
REMARK  183  A    between atoms: _437  and  _438
REMARK  184  A    between atoms: _441  and  _443
REMARK  185  A    between atoms: _443  and  _444
REMARK  186  A    between atoms: _446  and  _448
REMARK  187  A    between atoms: _448  and  _449
REMARK  188  A    between atoms: _451  and  _453
REMARK  189  A    between atoms: _453  and  _454
REMARK  190  A    between atoms: _453  and  _456
REMARK  191  A    between atoms: _456  and  _457
REMARK  192  A    between atoms: _463  and  _465
REMARK  193  A    between atoms: _465  and  _466
REMARK  194  A    between atoms: _465  and  _468
REMARK  195  A    between atoms: _468  and  _469
REMARK  196  A    between atoms: _472  and  _474
REMARK  197  A    between atoms: _474  and  _475
REMARK  198  A    between atoms: _474  and  _477
REMARK  199  A    between atoms: _480  and  _482
REMARK  200  A    between atoms: _482  and  _483
REMARK  201  A    between atoms: _482  and  _485
REMARK  202  A    between atoms: _485  and  _486
REMARK  203  A    between atoms: _489  and  _491
REMARK  204  A    between atoms: _491  and  _492
REMARK  205  A    between atoms: _491  and  _494
REMARK  206  A    between atoms: _494  and  _495
REMARK  207  A    between atoms: _499  and  _500
REMARK  208  A    between atoms: _505  and  _507
REMARK  209  A    between atoms: _507  and  _508
REMARK  210  A    between atoms: _507  and  _510
REMARK  211  A    between atoms: _513  and  _515
REMARK  212  A    between atoms: _515  and  _516
REMARK  213  A    between atoms: _515  and  _518
REMARK  214  A    between atoms: _518  and  _519
REMARK  215  A    between atoms: _524  and  _526
REMARK  216  A    between atoms: _526  and  _527
REMARK  217  A    between atoms: _526  and  _529
REMARK  218  A    between atoms: _529  and  _530
REMARK  219  A    between atoms: _533  and  _535
REMARK  220  A    between atoms: _535  and  _536
REMARK  221  A    between atoms: _535  and  _538
REMARK  222  A    between atoms: _538  and  _539
REMARK  223  A    between atoms: _542  and  _544
REMARK  224  A    between atoms: _544  and  _545
REMARK  225  A    between atoms: _547  and  _549
REMARK  226  A    between atoms: _549  and  _550
REMARK  227  A    between atoms: _549  and  _552
REMARK  228  A    between atoms: _552  and  _553
REMARK  229  A    between atoms: _553  and  _554
REMARK  230  A    between atoms: _554  and  _555
REMARK  231  A    between atoms: _564  and  _566
REMARK  232  A    between atoms: _566  and  _567
REMARK  233  A    between atoms: _566  and  _569
REMARK  234  A    between atoms: _569  and  _570
REMARK                            x       y       z     vdW  Elec       q    Type
REMARK                         _______ _______ _______ _____ _____    ______ ____
ROOT
ATOM      1  O   HOH     1      19.246  17.109   9.317  0.00  0.00    +0.000 OA
ENDROOT
TORSDOF 0
REMARK  Name = ../refined-set-2016/4mc2/4mc2_pocket.pdb
REMARK  234 active torsions:
REMARK  status: ('A' for Active; 'I' for Inactive)
REMARK    1  A    between atoms: _1  and  _3
REMARK    2  A    between atoms: _3  and  _4
REMARK    3  A    between atoms: _3  and  _6
REMARK    4  A    between atoms: _6  and  _7
REMARK    5  A    between atoms: _7  and  _8
REMARK    6  A    between atoms: _8  and  _9
REMARK    7  A    between atoms: _18  and  _20
REMARK    8  A    between atoms: _20  and  _21
REMARK    9  A    between atoms: _20  and  _23
REMARK   10  A    between atoms: _23  and  _24
REMARK   11  A    between atoms: _27  and  _29
REMARK   12  A    between atoms: _29  and  _30
REMARK   13  A    between atoms: _29  and  _32
REMARK   14  A    between atoms: _32  and  _33
REMARK   15  A    between atoms: _36  and  _38
REMARK   16  A    between atoms: _38  and  _39
REMARK   17  A    between atoms: _38  and  _41
REMARK   18  A    between atoms: _41  and  _42
REMARK   19  A    between atoms: _45  and  _47
REMARK   20  A    between atoms: _47  and  _48
REMARK   21  A    between atoms: _47  and  _50
REMARK   22  A    between atoms: _50  and  _51
REMARK   23  A    between atoms: _54  and  _56
REMARK   24  A    between atoms: _56  and  _57
REMARK   25  A    between atoms: _59  and  _61
REMARK   26  A    between atoms: _61  and  _62
REMARK   27  A    between atoms: _65  and  _67
REMARK   28  A    between atoms: _67  and  _68
REMARK   29  A    between atoms: _67  and  _70
REMARK   30  A    between atoms: _70  and  _71
REMARK   31  A    between atoms: _74  and  _76
REMARK   32  A    between atoms: _76  and  _77
REMARK   33  A    between atoms: _76  and  _79
REMARK   34  A    between atoms: _79  and  _80
REMARK   35  A    between atoms: _83  and  _85
REMARK   36  A    between atoms: _85  and  _86
REMARK   37  A    between atoms: _85  and  _88
REMARK   38  A    between atoms: _88  and  _89
REMARK   39  A    between atoms: _92  and  _94
REMARK   40  A    between atoms: _94  and  _95
REMARK   41  A    between atoms: _94  and  _97
REMARK   42  A    between atoms: _100  and  _102
REMARK   43  A    between atoms: _102  and  _103
REMARK   44  A    between atoms: _102  and  _105
REMARK   45  A    between atoms: _105  and  _106
REMARK   46  A    between atoms: _106  and  _107
REMARK   47  A    between atoms: _107  and  _108
REMARK   48  A    between atoms: _108  and  _109
REMARK   49  A    between atoms: _113  and  _115
REMARK   50  A    between atoms: _115  and  _116
REMARK   51  A    between atoms: _115  and  _118
REMARK   52  A    between atoms: _118  and  _119
REMARK   53  A    between atoms: _119  and  _120
REMARK   54  A    between atoms: _122  and  _124
REMARK   55  A    between atoms: _124  and  _125
REMARK   56  A    between atoms: _124  and  _127
REMARK   57  A    between atoms: _127  and  _128
REMARK   58  A    between atoms: _131  and  _133
REMARK   59  A    between atoms: _133  and  _134
REMARK   60  A    between atoms: _136  and  _138
REMARK   61  A    between atoms: _138  and  _139
REMARK   62  A    between atoms: _141  and  _143
REMARK   63  A    between atoms: _143  and  _144
REMARK   64  A    between atoms: _143  and  _146
REMARK   65  A    between atoms: _146  and  _147
REMARK   66  A    between atoms: _150  and  _152
REMARK   67  A    between atoms: _152  and  _153
REMARK   68  A    between atoms: _155  and  _157
REMARK   69  A    between atoms: _157  and  _158
REMARK   70  A    between atoms: _160  and  _162
REMARK   71  A    between atoms: _162  and  _163
REMARK   72  A    between atoms: _162  and  _165
REMARK   73  A    between atoms: _165  and  _166
REMARK   74  A    between atoms: _172  and  _174
REMARK   75  A    between atoms: _174  and  _175
REMARK   76  A    between atoms: _174  and  _177
REMARK   77  A    between atoms: _177  and  _178
REMARK   78  A    between atoms: _181  and  _183
REMARK   79  A    between atoms: _183  and  _184
REMARK   80  A    between atoms: _183  and  _186
REMARK   81  A    between atoms: _186  and  _187
REMARK   82  A    between atoms: _191  and  _192
REMARK   83  A    between atoms: _197  and  _199
REMARK   84  A    between atoms: _199  and  _200
REMARK   85  A    between atoms: _199  and  _202
REMARK   86  A    between atoms: _202  and  _203
REMARK   87  A    between atoms: _207  and  _208
REMARK   88  A    between atoms: _213  and  _215
REMARK   89  A    between atoms: _215  and  _216
REMARK   90  A    between atoms: _215  and  _218
REMARK   91  A    between atoms: _221  and  _223
REMARK   92  A    between atoms: _223  and  _224
REMARK   93  A    between atoms: _223  and  _226
REMARK   94  A    between atoms: _226  and  _227
REMARK   95  A    between atoms: _232  and  _234
REMARK   96  A    between atoms: _234  and  _235
REMARK   97  A    between atoms: _234  and  _237
REMARK   98  A    between atoms: _237  and  _238
REMARK   99  A    between atoms: _241  and  _243
REMARK  100  A    between atoms: _243  and  _244
REMARK  101  A    between atoms: _243  and  _246
REMARK  102  A    between atoms: _246  and  _247
REMARK  103  A    between atoms: _250  and  _252
REMARK  104  A    between atoms: _252  and  _253
REMARK  105  A    between atoms: _255  and  _257
REMARK  106  A    between atoms: _257  and  _258
REMARK  107  A    between atoms: _257  and  _260
REMARK  108  A    between atoms: _260  and  _261
REMARK  109  A    between atoms: _261  and  _262
REMARK  110  A    between atoms: _262  and  _263
REMARK  111  A    between atoms: _272  and  _274
REMARK  112  A    between atoms: _274  and  _275
REMARK  113  A    between atoms: _274  and  _277
REMARK  114  A    between atoms: _277  and  _278
REMARK  115  A    between atoms: _283  and  _285
REMARK  116  A    between atoms: _285  and  _286
REMARK  117  A    between atoms: _285  and  _288
REMARK  118  A    between atoms: _288  and  _289
REMARK  119  A    between atoms: _289  and  _290
REMARK  120  A    between atoms: _290  and  _291
REMARK  121  A    between atoms: _300  and  _302
REMARK  122  A    between atoms: _302  and  _303
REMARK  123  A    between atoms: _302  and  _305
REMARK  124  A    between atoms: _305  and  _306
REMARK  125  A    between atoms: _309  and  _311
REMARK  126  A    between atoms: _311  and  _312
REMARK  127  A    between atoms: _311  and  _314
REMARK  128  A    between atoms: _314  and  _315
REMARK  129  A    between atoms: _318  and  _320
REMARK  130  A    between atoms: _320  and  _321
REMARK  131  A    between atoms: _320  and  _323
REMARK  132  A    between atoms: _323  and  _324
REMARK  133  A    between atoms: _327  and  _329
REMARK  134  A    between atoms: _329  and  _330
REMARK  135  A    between atoms: _329  and  _332
REMARK  136  A    between atoms: _332  and  _333
REMARK  137  A    between atoms: _336  and  _338
REMARK  138  A    between atoms: _338  and  _339
REMARK  139  A    between atoms: _341  and  _343
REMARK  140  A    between atoms: _343  and  _344
REMARK  141  A    between atoms: _347  and  _349
REMARK  142  A    between atoms: _349  and  _350
REMARK  143  A    between atoms: _349  and  _352
REMARK  144  A    between atoms: _352  and  _353
REMARK  145  A    between atoms: _356  and  _358
REMARK  146  A    between atoms: _358  and  _359
REMARK  147  A    between atoms: _358  and  _361
REMARK  148  A    between atoms: _361  and  _362
REMARK  149  A    between atoms: _365  and  _367
REMARK  150  A    between atoms: _367  and  _368
REMARK  151  A    between atoms: _367  and  _370
REMARK  152  A    between atoms: _370  and  _371
REMARK  153  A    between atoms: _374  and  _376
REMARK  154  A    between atoms: _376  and  _377
REMARK  155  A    between atoms: _376  and  _379
REMARK  156  A    between atoms: _382  and  _384
REMARK  157  A    between atoms: _384  and  _385
REMARK  158  A    between atoms: _384  and  _387
REMARK  159  A    between atoms: _387  and  _388
REMARK  160  A    between atoms: _391  and  _393
REMARK  161  A    between atoms: _393  and  _394
REMARK  162  A    between atoms: _393  and  _396
REMARK  163  A    between atoms: _396  and  _397
REMARK  164  A    between atoms: _397  and  _398
REMARK  165  A    between atoms: _398  and  _399
REMARK  166  A    between atoms: _399  and  _400
REMARK  167  A    between atoms: _404  and  _406
REMARK  168  A    between atoms: _406  and  _407
REMARK  169  A    between atoms: _406  and  _409
REMARK  170  A    between atoms: _409  and  _410
REMARK  171  A    between atoms: _410  and  _411
REMARK  172  A    between atoms: _413  and  _415
REMARK  173  A    between atoms: _415  and  _416
REMARK  174  A    between atoms: _415  and  _418
REMARK  175  A    between atoms: _418  and  _419
REMARK  176  A    between atoms: _422  and  _424
REMARK  177  A    between atoms: _424  and  _425
REMARK  178  A    between atoms: _427  and  _429
REMARK  179  A    between atoms: _429  and  _430
REMARK  180  A    between atoms: _432  and  _434
REMARK  181  A    between atoms: _434  and  _435
REMARK  182  A    between atoms: _434  and  _437
REMARK  183  A    between atoms: _437  and  _438
REMARK  184  A    between atoms: _441  and  _443
REMARK  185  A    between atoms: _443  and  _444
REMARK  186  A    between atoms: _446  and  _448
REMARK  187  A    between atoms: _448  and  _449
REMARK  188  A    between atoms: _451  and  _453
REMARK  189  A    between atoms: _453  and  _454
REMARK  190  A    between atoms: _453  and  _456
REMARK  191  A    between atoms: _456  and  _457
REMARK  192  A    between atoms: _463  and  _465
REMARK  193  A    between atoms: _465  and  _466
REMARK  194  A    between atoms: _465  and  _468
REMARK  195  A    between atoms: _468  and  _469
REMARK  196  A    between atoms: _472  and  _474
REMARK  197  A    between atoms: _474  and  _475
REMARK  198  A    between atoms: _474  and  _477
REMARK  199  A    between atoms: _480  and  _482
REMARK  200  A    between atoms: _482  and  _483
REMARK  201  A    between atoms: _482  and  _485
REMARK  202  A    between atoms: _485  and  _486
REMARK  203  A    between atoms: _489  and  _491
REMARK  204  A    between atoms: _491  and  _492
REMARK  205  A    between atoms: _491  and  _494
REMARK  206  A    between atoms: _494  and  _495
REMARK  207  A    between atoms: _499  and  _500
REMARK  208  A    between atoms: _505  and  _507
REMARK  209  A    between atoms: _507  and  _508
REMARK  210  A    between atoms: _507  and  _510
REMARK  211  A    between atoms: _513  and  _515
REMARK  212  A    between atoms: _515  and  _516
REMARK  213  A    between atoms: _515  and  _518
REMARK  214  A    between atoms: _518  and  _519
REMARK  215  A    between atoms: _524  and  _526
REMARK  216  A    between atoms: _526  and  _527
REMARK  217  A    between atoms: _526  and  _529
REMARK  218  A    between atoms: _529  and  _530
REMARK  219  A    between atoms: _533  and  _535
REMARK  220  A    between atoms: _535  and  _536
REMARK  221  A    between atoms: _535  and  _538
REMARK  222  A    between atoms: _538  and  _539
REMARK  223  A    between atoms: _542  and  _544
REMARK  224  A    between atoms: _544  and  _545
REMARK  225  A    between atoms: _547  and  _549
REMARK  226  A    between atoms: _549  and  _550
REMARK  227  A    between atoms: _549  and  _552
REMARK  228  A    between atoms: _552  and  _553
REMARK  229  A    between atoms: _553  and  _554
REMARK  230  A    between atoms: _554  and  _555
REMARK  231  A    between atoms: _564  and  _566
REMARK  232  A    between atoms: _566  and  _567
REMARK  233  A    between atoms: _566  and  _569
REMARK  234  A    between atoms: _569  and  _570
REMARK                            x       y       z     vdW  Elec       q    Type
REMARK                         _______ _______ _______ _____ _____    ______ ____
ROOT
ATOM      1  O   HOH     1       7.205  15.709   3.520  0.00  0.00    +0.000 OA
ENDROOT
TORSDOF 0
REMARK  Name = ../refined-set-2016/4mc2/4mc2_pocket.pdb
REMARK  234 active torsions:
REMARK  status: ('A' for Active; 'I' for Inactive)
REMARK    1  A    between atoms: _1  and  _3
REMARK    2  A    between atoms: _3  and  _4
REMARK    3  A    between atoms: _3  and  _6
REMARK    4  A    between atoms: _6  and  _7
REMARK    5  A    between atoms: _7  and  _8
REMARK    6  A    between atoms: _8  and  _9
REMARK    7  A    between atoms: _18  and  _20
REMARK    8  A    between atoms: _20  and  _21
REMARK    9  A    between atoms: _20  and  _23
REMARK   10  A    between atoms: _23  and  _24
REMARK   11  A    between atoms: _27  and  _29
REMARK   12  A    between atoms: _29  and  _30
REMARK   13  A    between atoms: _29  and  _32
REMARK   14  A    between atoms: _32  and  _33
REMARK   15  A    between atoms: _36  and  _38
REMARK   16  A    between atoms: _38  and  _39
REMARK   17  A    between atoms: _38  and  _41
REMARK   18  A    between atoms: _41  and  _42
REMARK   19  A    between atoms: _45  and  _47
REMARK   20  A    between atoms: _47  and  _48
REMARK   21  A    between atoms: _47  and  _50
REMARK   22  A    between atoms: _50  and  _51
REMARK   23  A    between atoms: _54  and  _56
REMARK   24  A    between atoms: _56  and  _57
REMARK   25  A    between atoms: _59  and  _61
REMARK   26  A    between atoms: _61  and  _62
REMARK   27  A    between atoms: _65  and  _67
REMARK   28  A    between atoms: _67  and  _68
REMARK   29  A    between atoms: _67  and  _70
REMARK   30  A    between atoms: _70  and  _71
REMARK   31  A    between atoms: _74  and  _76
REMARK   32  A    between atoms: _76  and  _77
REMARK   33  A    between atoms: _76  and  _79
REMARK   34  A    between atoms: _79  and  _80
REMARK   35  A    between atoms: _83  and  _85
REMARK   36  A    between atoms: _85  and  _86
REMARK   37  A    between atoms: _85  and  _88
REMARK   38  A    between atoms: _88  and  _89
REMARK   39  A    between atoms: _92  and  _94
REMARK   40  A    between atoms: _94  and  _95
REMARK   41  A    between atoms: _94  and  _97
REMARK   42  A    between atoms: _100  and  _102
REMARK   43  A    between atoms: _102  and  _103
REMARK   44  A    between atoms: _102  and  _105
REMARK   45  A    between atoms: _105  and  _106
REMARK   46  A    between atoms: _106  and  _107
REMARK   47  A    between atoms: _107  and  _108
REMARK   48  A    between atoms: _108  and  _109
REMARK   49  A    between atoms: _113  and  _115
REMARK   50  A    between atoms: _115  and  _116
REMARK   51  A    between atoms: _115  and  _118
REMARK   52  A    between atoms: _118  and  _119
REMARK   53  A    between atoms: _119  and  _120
REMARK   54  A    between atoms: _122  and  _124
REMARK   55  A    between atoms: _124  and  _125
REMARK   56  A    between atoms: _124  and  _127
REMARK   57  A    between atoms: _127  and  _128
REMARK   58  A    between atoms: _131  and  _133
REMARK   59  A    between atoms: _133  and  _134
REMARK   60  A    between atoms: _136  and  _138
REMARK   61  A    between atoms: _138  and  _139
REMARK   62  A    between atoms: _141  and  _143
REMARK   63  A    between atoms: _143  and  _144
REMARK   64  A    between atoms: _143  and  _146
REMARK   65  A    between atoms: _146  and  _147
REMARK   66  A    between atoms: _150  and  _152
REMARK   67  A    between atoms: _152  and  _153
REMARK   68  A    between atoms: _155  and  _157
REMARK   69  A    between atoms: _157  and  _158
REMARK   70  A    between atoms: _160  and  _162
REMARK   71  A    between atoms: _162  and  _163
REMARK   72  A    between atoms: _162  and  _165
REMARK   73  A    between atoms: _165  and  _166
REMARK   74  A    between atoms: _172  and  _174
REMARK   75  A    between atoms: _174  and  _175
REMARK   76  A    between atoms: _174  and  _177
REMARK   77  A    between atoms: _177  and  _178
REMARK   78  A    between atoms: _181  and  _183
REMARK   79  A    between atoms: _183  and  _184
REMARK   80  A    between atoms: _183  and  _186
REMARK   81  A    between atoms: _186  and  _187
REMARK   82  A    between atoms: _191  and  _192
REMARK   83  A    between atoms: _197  and  _199
REMARK   84  A    between atoms: _199  and  _200
REMARK   85  A    between atoms: _199  and  _202
REMARK   86  A    between atoms: _202  and  _203
REMARK   87  A    between atoms: _207  and  _208
REMARK   88  A    between atoms: _213  and  _215
REMARK   89  A    between atoms: _215  and  _216
REMARK   90  A    between atoms: _215  and  _218
REMARK   91  A    between atoms: _221  and  _223
REMARK   92  A    between atoms: _223  and  _224
REMARK   93  A    between atoms: _223  and  _226
REMARK   94  A    between atoms: _226  and  _227
REMARK   95  A    between atoms: _232  and  _234
REMARK   96  A    between atoms: _234  and  _235
REMARK   97  A    between atoms: _234  and  _237
REMARK   98  A    between atoms: _237  and  _238
REMARK   99  A    between atoms: _241  and  _243
REMARK  100  A    between atoms: _243  and  _244
REMARK  101  A    between atoms: _243  and  _246
REMARK  102  A    between atoms: _246  and  _247
REMARK  103  A    between atoms: _250  and  _252
REMARK  104  A    between atoms: _252  and  _253
REMARK  105  A    between atoms: _255  and  _257
REMARK  106  A    between atoms: _257  and  _258
REMARK  107  A    between atoms: _257  and  _260
REMARK  108  A    between atoms: _260  and  _261
REMARK  109  A    between atoms: _261  and  _262
REMARK  110  A    between atoms: _262  and  _263
REMARK  111  A    between atoms: _272  and  _274
REMARK  112  A    between atoms: _274  and  _275
REMARK  113  A    between atoms: _274  and  _277
REMARK  114  A    between atoms: _277  and  _278
REMARK  115  A    between atoms: _283  and  _285
REMARK  116  A    between atoms: _285  and  _286
REMARK  117  A    between atoms: _285  and  _288
REMARK  118  A    between atoms: _288  and  _289
REMARK  119  A    between atoms: _289  and  _290
REMARK  120  A    between atoms: _290  and  _291
REMARK  121  A    between atoms: _300  and  _302
REMARK  122  A    between atoms: _302  and  _303
REMARK  123  A    between atoms: _302  and  _305
REMARK  124  A    between atoms: _305  and  _306
REMARK  125  A    between atoms: _309  and  _311
REMARK  126  A    between atoms: _311  and  _312
REMARK  127  A    between atoms: _311  and  _314
REMARK  128  A    between atoms: _314  and  _315
REMARK  129  A    between atoms: _318  and  _320
REMARK  130  A    between atoms: _320  and  _321
REMARK  131  A    between atoms: _320  and  _323
REMARK  132  A    between atoms: _323  and  _324
REMARK  133  A    between atoms: _327  and  _329
REMARK  134  A    between atoms: _329  and  _330
REMARK  135  A    between atoms: _329  and  _332
REMARK  136  A    between atoms: _332  and  _333
REMARK  137  A    between atoms: _336  and  _338
REMARK  138  A    between atoms: _338  and  _339
REMARK  139  A    between atoms: _341  and  _343
REMARK  140  A    between atoms: _343  and  _344
REMARK  141  A    between atoms: _347  and  _349
REMARK  142  A    between atoms: _349  and  _350
REMARK  143  A    between atoms: _349  and  _352
REMARK  144  A    between atoms: _352  and  _353
REMARK  145  A    between atoms: _356  and  _358
REMARK  146  A    between atoms: _358  and  _359
REMARK  147  A    between atoms: _358  and  _361
REMARK  148  A    between atoms: _361  and  _362
REMARK  149  A    between atoms: _365  and  _367
REMARK  150  A    between atoms: _367  and  _368
REMARK  151  A    between atoms: _367  and  _370
REMARK  152  A    between atoms: _370  and  _371
REMARK  153  A    between atoms: _374  and  _376
REMARK  154  A    between atoms: _376  and  _377
REMARK  155  A    between atoms: _376  and  _379
REMARK  156  A    between atoms: _382  and  _384
REMARK  157  A    between atoms: _384  and  _385
REMARK  158  A    between atoms: _384  and  _387
REMARK  159  A    between atoms: _387  and  _388
REMARK  160  A    between atoms: _391  and  _393
REMARK  161  A    between atoms: _393  and  _394
REMARK  162  A    between atoms: _393  and  _396
REMARK  163  A    between atoms: _396  and  _397
REMARK  164  A    between atoms: _397  and  _398
REMARK  165  A    between atoms: _398  and  _399
REMARK  166  A    between atoms: _399  and  _400
REMARK  167  A    between atoms: _404  and  _406
REMARK  168  A    between atoms: _406  and  _407
REMARK  169  A    between atoms: _406  and  _409
REMARK  170  A    between atoms: _409  and  _410
REMARK  171  A    between atoms: _410  and  _411
REMARK  172  A    between atoms: _413  and  _415
REMARK  173  A    between atoms: _415  and  _416
REMARK  174  A    between atoms: _415  and  _418
REMARK  175  A    between atoms: _418  and  _419
REMARK  176  A    between atoms: _422  and  _424
REMARK  177  A    between atoms: _424  and  _425
REMARK  178  A    between atoms: _427  and  _429
REMARK  179  A    between atoms: _429  and  _430
REMARK  180  A    between atoms: _432  and  _434
REMARK  181  A    between atoms: _434  and  _435
REMARK  182  A    between atoms: _434  and  _437
REMARK  183  A    between atoms: _437  and  _438
REMARK  184  A    between atoms: _441  and  _443
REMARK  185  A    between atoms: _443  and  _444
REMARK  186  A    between atoms: _446  and  _448
REMARK  187  A    between atoms: _448  and  _449
REMARK  188  A    between atoms: _451  and  _453
REMARK  189  A    between atoms: _453  and  _454
REMARK  190  A    between atoms: _453  and  _456
REMARK  191  A    between atoms: _456  and  _457
REMARK  192  A    between atoms: _463  and  _465
REMARK  193  A    between atoms: _465  and  _466
REMARK  194  A    between atoms: _465  and  _468
REMARK  195  A    between atoms: _468  and  _469
REMARK  196  A    between atoms: _472  and  _474
REMARK  197  A    between atoms: _474  and  _475
REMARK  198  A    between atoms: _474  and  _477
REMARK  199  A    between atoms: _480  and  _482
REMARK  200  A    between atoms: _482  and  _483
REMARK  201  A    between atoms: _482  and  _485
REMARK  202  A    between atoms: _485  and  _486
REMARK  203  A    between atoms: _489  and  _491
REMARK  204  A    between atoms: _491  and  _492
REMARK  205  A    between atoms: _491  and  _494
REMARK  206  A    between atoms: _494  and  _495
REMARK  207  A    between atoms: _499  and  _500
REMARK  208  A    between atoms: _505  and  _507
REMARK  209  A    between atoms: _507  and  _508
REMARK  210  A    between atoms: _507  and  _510
REMARK  211  A    between atoms: _513  and  _515
REMARK  212  A    between atoms: _515  and  _516
REMARK  213  A    between atoms: _515  and  _518
REMARK  214  A    between atoms: _518  and  _519
REMARK  215  A    between atoms: _524  and  _526
REMARK  216  A    between atoms: _526  and  _527
REMARK  217  A    between atoms: _526  and  _529
REMARK  218  A    between atoms: _529  and  _530
REMARK  219  A    between atoms: _533  and  _535
REMARK  220  A    between atoms: _535  and  _536
REMARK  221  A    between atoms: _535  and  _538
REMARK  222  A    between atoms: _538  and  _539
REMARK  223  A    between atoms: _542  and  _544
REMARK  224  A    between atoms: _544  and  _545
REMARK  225  A    between atoms: _547  and  _549
REMARK  226  A    between atoms: _549  and  _550
REMARK  227  A    between atoms: _549  and  _552
REMARK  228  A    between atoms: _552  and  _553
REMARK  229  A    between atoms: _553  and  _554
REMARK  230  A    between atoms: _554  and  _555
REMARK  231  A    between atoms: _564  and  _566
REMARK  232  A    between atoms: _566  and  _567
REMARK  233  A    between atoms: _566  and  _569
REMARK  234  A    between atoms: _569  and  _570
REMARK                            x       y       z     vdW  Elec       q    Type
REMARK                         _______ _______ _______ _____ _____    ______ ____
ROOT
ATOM      1  O   HOH     1      17.374  16.745  11.240  0.00  0.00    +0.000 OA
ENDROOT
TORSDOF 0
REMARK  Name = ../refined-set-2016/4mc2/4mc2_pocket.pdb
REMARK  234 active torsions:
REMARK  status: ('A' for Active; 'I' for Inactive)
REMARK    1  A    between atoms: _1  and  _3
REMARK    2  A    between atoms: _3  and  _4
REMARK    3  A    between atoms: _3  and  _6
REMARK    4  A    between atoms: _6  and  _7
REMARK    5  A    between atoms: _7  and  _8
REMARK    6  A    between atoms: _8  and  _9
REMARK    7  A    between atoms: _18  and  _20
REMARK    8  A    between atoms: _20  and  _21
REMARK    9  A    between atoms: _20  and  _23
REMARK   10  A    between atoms: _23  and  _24
REMARK   11  A    between atoms: _27  and  _29
REMARK   12  A    between atoms: _29  and  _30
REMARK   13  A    between atoms: _29  and  _32
REMARK   14  A    between atoms: _32  and  _33
REMARK   15  A    between atoms: _36  and  _38
REMARK   16  A    between atoms: _38  and  _39
REMARK   17  A    between atoms: _38  and  _41
REMARK   18  A    between atoms: _41  and  _42
REMARK   19  A    between atoms: _45  and  _47
REMARK   20  A    between atoms: _47  and  _48
REMARK   21  A    between atoms: _47  and  _50
REMARK   22  A    between atoms: _50  and  _51
REMARK   23  A    between atoms: _54  and  _56
REMARK   24  A    between atoms: _56  and  _57
REMARK   25  A    between atoms: _59  and  _61
REMARK   26  A    between atoms: _61  and  _62
REMARK   27  A    between atoms: _65  and  _67
REMARK   28  A    between atoms: _67  and  _68
REMARK   29  A    between atoms: _67  and  _70
REMARK   30  A    between atoms: _70  and  _71
REMARK   31  A    between atoms: _74  and  _76
REMARK   32  A    between atoms: _76  and  _77
REMARK   33  A    between atoms: _76  and  _79
REMARK   34  A    between atoms: _79  and  _80
REMARK   35  A    between atoms: _83  and  _85
REMARK   36  A    between atoms: _85  and  _86
REMARK   37  A    between atoms: _85  and  _88
REMARK   38  A    between atoms: _88  and  _89
REMARK   39  A    between atoms: _92  and  _94
REMARK   40  A    between atoms: _94  and  _95
REMARK   41  A    between atoms: _94  and  _97
REMARK   42  A    between atoms: _100  and  _102
REMARK   43  A    between atoms: _102  and  _103
REMARK   44  A    between atoms: _102  and  _105
REMARK   45  A    between atoms: _105  and  _106
REMARK   46  A    between atoms: _106  and  _107
REMARK   47  A    between atoms: _107  and  _108
REMARK   48  A    between atoms: _108  and  _109
REMARK   49  A    between atoms: _113  and  _115
REMARK   50  A    between atoms: _115  and  _116
REMARK   51  A    between atoms: _115  and  _118
REMARK   52  A    between atoms: _118  and  _119
REMARK   53  A    between atoms: _119  and  _120
REMARK   54  A    between atoms: _122  and  _124
REMARK   55  A    between atoms: _124  and  _125
REMARK   56  A    between atoms: _124  and  _127
REMARK   57  A    between atoms: _127  and  _128
REMARK   58  A    between atoms: _131  and  _133
REMARK   59  A    between atoms: _133  and  _134
REMARK   60  A    between atoms: _136  and  _138
REMARK   61  A    between atoms: _138  and  _139
REMARK   62  A    between atoms: _141  and  _143
REMARK   63  A    between atoms: _143  and  _144
REMARK   64  A    between atoms: _143  and  _146
REMARK   65  A    between atoms: _146  and  _147
REMARK   66  A    between atoms: _150  and  _152
REMARK   67  A    between atoms: _152  and  _153
REMARK   68  A    between atoms: _155  and  _157
REMARK   69  A    between atoms: _157  and  _158
REMARK   70  A    between atoms: _160  and  _162
REMARK   71  A    between atoms: _162  and  _163
REMARK   72  A    between atoms: _162  and  _165
REMARK   73  A    between atoms: _165  and  _166
REMARK   74  A    between atoms: _172  and  _174
REMARK   75  A    between atoms: _174  and  _175
REMARK   76  A    between atoms: _174  and  _177
REMARK   77  A    between atoms: _177  and  _178
REMARK   78  A    between atoms: _181  and  _183
REMARK   79  A    between atoms: _183  and  _184
REMARK   80  A    between atoms: _183  and  _186
REMARK   81  A    between atoms: _186  and  _187
REMARK   82  A    between atoms: _191  and  _192
REMARK   83  A    between atoms: _197  and  _199
REMARK   84  A    between atoms: _199  and  _200
REMARK   85  A    between atoms: _199  and  _202
REMARK   86  A    between atoms: _202  and  _203
REMARK   87  A    between atoms: _207  and  _208
REMARK   88  A    between atoms: _213  and  _215
REMARK   89  A    between atoms: _215  and  _216
REMARK   90  A    between atoms: _215  and  _218
REMARK   91  A    between atoms: _221  and  _223
REMARK   92  A    between atoms: _223  and  _224
REMARK   93  A    between atoms: _223  and  _226
REMARK   94  A    between atoms: _226  and  _227
REMARK   95  A    between atoms: _232  and  _234
REMARK   96  A    between atoms: _234  and  _235
REMARK   97  A    between atoms: _234  and  _237
REMARK   98  A    between atoms: _237  and  _238
REMARK   99  A    between atoms: _241  and  _243
REMARK  100  A    between atoms: _243  and  _244
REMARK  101  A    between atoms: _243  and  _246
REMARK  102  A    between atoms: _246  and  _247
REMARK  103  A    between atoms: _250  and  _252
REMARK  104  A    between atoms: _252  and  _253
REMARK  105  A    between atoms: _255  and  _257
REMARK  106  A    between atoms: _257  and  _258
REMARK  107  A    between atoms: _257  and  _260
REMARK  108  A    between atoms: _260  and  _261
REMARK  109  A    between atoms: _261  and  _262
REMARK  110  A    between atoms: _262  and  _263
REMARK  111  A    between atoms: _272  and  _274
REMARK  112  A    between atoms: _274  and  _275
REMARK  113  A    between atoms: _274  and  _277
REMARK  114  A    between atoms: _277  and  _278
REMARK  115  A    between atoms: _283  and  _285
REMARK  116  A    between atoms: _285  and  _286
REMARK  117  A    between atoms: _285  and  _288
REMARK  118  A    between atoms: _288  and  _289
REMARK  119  A    between atoms: _289  and  _290
REMARK  120  A    between atoms: _290  and  _291
REMARK  121  A    between atoms: _300  and  _302
REMARK  122  A    between atoms: _302  and  _303
REMARK  123  A    between atoms: _302  and  _305
REMARK  124  A    between atoms: _305  and  _306
REMARK  125  A    between atoms: _309  and  _311
REMARK  126  A    between atoms: _311  and  _312
REMARK  127  A    between atoms: _311  and  _314
REMARK  128  A    between atoms: _314  and  _315
REMARK  129  A    between atoms: _318  and  _320
REMARK  130  A    between atoms: _320  and  _321
REMARK  131  A    between atoms: _320  and  _323
REMARK  132  A    between atoms: _323  and  _324
REMARK  133  A    between atoms: _327  and  _329
REMARK  134  A    between atoms: _329  and  _330
REMARK  135  A    between atoms: _329  and  _332
REMARK  136  A    between atoms: _332  and  _333
REMARK  137  A    between atoms: _336  and  _338
REMARK  138  A    between atoms: _338  and  _339
REMARK  139  A    between atoms: _341  and  _343
REMARK  140  A    between atoms: _343  and  _344
REMARK  141  A    between atoms: _347  and  _349
REMARK  142  A    between atoms: _349  and  _350
REMARK  143  A    between atoms: _349  and  _352
REMARK  144  A    between atoms: _352  and  _353
REMARK  145  A    between atoms: _356  and  _358
REMARK  146  A    between atoms: _358  and  _359
REMARK  147  A    between atoms: _358  and  _361
REMARK  148  A    between atoms: _361  and  _362
REMARK  149  A    between atoms: _365  and  _367
REMARK  150  A    between atoms: _367  and  _368
REMARK  151  A    between atoms: _367  and  _370
REMARK  152  A    between atoms: _370  and  _371
REMARK  153  A    between atoms: _374  and  _376
REMARK  154  A    between atoms: _376  and  _377
REMARK  155  A    between atoms: _376  and  _379
REMARK  156  A    between atoms: _382  and  _384
REMARK  157  A    between atoms: _384  and  _385
REMARK  158  A    between atoms: _384  and  _387
REMARK  159  A    between atoms: _387  and  _388
REMARK  160  A    between atoms: _391  and  _393
REMARK  161  A    between atoms: _393  and  _394
REMARK  162  A    between atoms: _393  and  _396
REMARK  163  A    between atoms: _396  and  _397
REMARK  164  A    between atoms: _397  and  _398
REMARK  165  A    between atoms: _398  and  _399
REMARK  166  A    between atoms: _399  and  _400
REMARK  167  A    between atoms: _404  and  _406
REMARK  168  A    between atoms: _406  and  _407
REMARK  169  A    between atoms: _406  and  _409
REMARK  170  A    between atoms: _409  and  _410
REMARK  171  A    between atoms: _410  and  _411
REMARK  172  A    between atoms: _413  and  _415
REMARK  173  A    between atoms: _415  and  _416
REMARK  174  A    between atoms: _415  and  _418
REMARK  175  A    between atoms: _418  and  _419
REMARK  176  A    between atoms: _422  and  _424
REMARK  177  A    between atoms: _424  and  _425
REMARK  178  A    between atoms: _427  and  _429
REMARK  179  A    between atoms: _429  and  _430
REMARK  180  A    between atoms: _432  and  _434
REMARK  181  A    between atoms: _434  and  _435
REMARK  182  A    between atoms: _434  and  _437
REMARK  183  A    between atoms: _437  and  _438
REMARK  184  A    between atoms: _441  and  _443
REMARK  185  A    between atoms: _443  and  _444
REMARK  186  A    between atoms: _446  and  _448
REMARK  187  A    between atoms: _448  and  _449
REMARK  188  A    between atoms: _451  and  _453
REMARK  189  A    between atoms: _453  and  _454
REMARK  190  A    between atoms: _453  and  _456
REMARK  191  A    between atoms: _456  and  _457
REMARK  192  A    between atoms: _463  and  _465
REMARK  193  A    between atoms: _465  and  _466
REMARK  194  A    between atoms: _465  and  _468
REMARK  195  A    between atoms: _468  and  _469
REMARK  196  A    between atoms: _472  and  _474
REMARK  197  A    between atoms: _474  and  _475
REMARK  198  A    between atoms: _474  and  _477
REMARK  199  A    between atoms: _480  and  _482
REMARK  200  A    between atoms: _482  and  _483
REMARK  201  A    between atoms: _482  and  _485
REMARK  202  A    between atoms: _485  and  _486
REMARK  203  A    between atoms: _489  and  _491
REMARK  204  A    between atoms: _491  and  _492
REMARK  205  A    between atoms: _491  and  _494
REMARK  206  A    between atoms: _494  and  _495
REMARK  207  A    between atoms: _499  and  _500
REMARK  208  A    between atoms: _505  and  _507
REMARK  209  A    between atoms: _507  and  _508
REMARK  210  A    between atoms: _507  and  _510
REMARK  211  A    between atoms: _513  and  _515
REMARK  212  A    between atoms: _515  and  _516
REMARK  213  A    between atoms: _515  and  _518
REMARK  214  A    between atoms: _518  and  _519
REMARK  215  A    between atoms: _524  and  _526
REMARK  216  A    between atoms: _526  and  _527
REMARK  217  A    between atoms: _526  and  _529
REMARK  218  A    between atoms: _529  and  _530
REMARK  219  A    between atoms: _533  and  _535
REMARK  220  A    between atoms: _535  and  _536
REMARK  221  A    between atoms: _535  and  _538
REMARK  222  A    between atoms: _538  and  _539
REMARK  223  A    between atoms: _542  and  _544
REMARK  224  A    between atoms: _544  and  _545
REMARK  225  A    between atoms: _547  and  _549
REMARK  226  A    between atoms: _549  and  _550
REMARK  227  A    between atoms: _549  and  _552
REMARK  228  A    between atoms: _552  and  _553
REMARK  229  A    between atoms: _553  and  _554
REMARK  230  A    between atoms: _554  and  _555
REMARK  231  A    between atoms: _564  and  _566
REMARK  232  A    between atoms: _566  and  _567
REMARK  233  A    between atoms: _566  and  _569
REMARK  234  A    between atoms: _569  and  _570
REMARK                            x       y       z     vdW  Elec       q    Type
REMARK                         _______ _______ _______ _____ _____    ______ ____
ROOT
ATOM      1  O   HOH     1       3.725  34.023  11.702  0.00  0.00    +0.000 OA
ENDROOT
TORSDOF 0
REMARK  Name = ../refined-set-2016/4mc2/4mc2_pocket.pdb
REMARK  234 active torsions:
REMARK  status: ('A' for Active; 'I' for Inactive)
REMARK    1  A    between atoms: _1  and  _3
REMARK    2  A    between atoms: _3  and  _4
REMARK    3  A    between atoms: _3  and  _6
REMARK    4  A    between atoms: _6  and  _7
REMARK    5  A    between atoms: _7  and  _8
REMARK    6  A    between atoms: _8  and  _9
REMARK    7  A    between atoms: _18  and  _20
REMARK    8  A    between atoms: _20  and  _21
REMARK    9  A    between atoms: _20  and  _23
REMARK   10  A    between atoms: _23  and  _24
REMARK   11  A    between atoms: _27  and  _29
REMARK   12  A    between atoms: _29  and  _30
REMARK   13  A    between atoms: _29  and  _32
REMARK   14  A    between atoms: _32  and  _33
REMARK   15  A    between atoms: _36  and  _38
REMARK   16  A    between atoms: _38  and  _39
REMARK   17  A    between atoms: _38  and  _41
REMARK   18  A    between atoms: _41  and  _42
REMARK   19  A    between atoms: _45  and  _47
REMARK   20  A    between atoms: _47  and  _48
REMARK   21  A    between atoms: _47  and  _50
REMARK   22  A    between atoms: _50  and  _51
REMARK   23  A    between atoms: _54  and  _56
REMARK   24  A    between atoms: _56  and  _57
REMARK   25  A    between atoms: _59  and  _61
REMARK   26  A    between atoms: _61  and  _62
REMARK   27  A    between atoms: _65  and  _67
REMARK   28  A    between atoms: _67  and  _68
REMARK   29  A    between atoms: _67  and  _70
REMARK   30  A    between atoms: _70  and  _71
REMARK   31  A    between atoms: _74  and  _76
REMARK   32  A    between atoms: _76  and  _77
REMARK   33  A    between atoms: _76  and  _79
REMARK   34  A    between atoms: _79  and  _80
REMARK   35  A    between atoms: _83  and  _85
REMARK   36  A    between atoms: _85  and  _86
REMARK   37  A    between atoms: _85  and  _88
REMARK   38  A    between atoms: _88  and  _89
REMARK   39  A    between atoms: _92  and  _94
REMARK   40  A    between atoms: _94  and  _95
REMARK   41  A    between atoms: _94  and  _97
REMARK   42  A    between atoms: _100  and  _102
REMARK   43  A    between atoms: _102  and  _103
REMARK   44  A    between atoms: _102  and  _105
REMARK   45  A    between atoms: _105  and  _106
REMARK   46  A    between atoms: _106  and  _107
REMARK   47  A    between atoms: _107  and  _108
REMARK   48  A    between atoms: _108  and  _109
REMARK   49  A    between atoms: _113  and  _115
REMARK   50  A    between atoms: _115  and  _116
REMARK   51  A    between atoms: _115  and  _118
REMARK   52  A    between atoms: _118  and  _119
REMARK   53  A    between atoms: _119  and  _120
REMARK   54  A    between atoms: _122  and  _124
REMARK   55  A    between atoms: _124  and  _125
REMARK   56  A    between atoms: _124  and  _127
REMARK   57  A    between atoms: _127  and  _128
REMARK   58  A    between atoms: _131  and  _133
REMARK   59  A    between atoms: _133  and  _134
REMARK   60  A    between atoms: _136  and  _138
REMARK   61  A    between atoms: _138  and  _139
REMARK   62  A    between atoms: _141  and  _143
REMARK   63  A    between atoms: _143  and  _144
REMARK   64  A    between atoms: _143  and  _146
REMARK   65  A    between atoms: _146  and  _147
REMARK   66  A    between atoms: _150  and  _152
REMARK   67  A    between atoms: _152  and  _153
REMARK   68  A    between atoms: _155  and  _157
REMARK   69  A    between atoms: _157  and  _158
REMARK   70  A    between atoms: _160  and  _162
REMARK   71  A    between atoms: _162  and  _163
REMARK   72  A    between atoms: _162  and  _165
REMARK   73  A    between atoms: _165  and  _166
REMARK   74  A    between atoms: _172  and  _174
REMARK   75  A    between atoms: _174  and  _175
REMARK   76  A    between atoms: _174  and  _177
REMARK   77  A    between atoms: _177  and  _178
REMARK   78  A    between atoms: _181  and  _183
REMARK   79  A    between atoms: _183  and  _184
REMARK   80  A    between atoms: _183  and  _186
REMARK   81  A    between atoms: _186  and  _187
REMARK   82  A    between atoms: _191  and  _192
REMARK   83  A    between atoms: _197  and  _199
REMARK   84  A    between atoms: _199  and  _200
REMARK   85  A    between atoms: _199  and  _202
REMARK   86  A    between atoms: _202  and  _203
REMARK   87  A    between atoms: _207  and  _208
REMARK   88  A    between atoms: _213  and  _215
REMARK   89  A    between atoms: _215  and  _216
REMARK   90  A    between atoms: _215  and  _218
REMARK   91  A    between atoms: _221  and  _223
REMARK   92  A    between atoms: _223  and  _224
REMARK   93  A    between atoms: _223  and  _226
REMARK   94  A    between atoms: _226  and  _227
REMARK   95  A    between atoms: _232  and  _234
REMARK   96  A    between atoms: _234  and  _235
REMARK   97  A    between atoms: _234  and  _237
REMARK   98  A    between atoms: _237  and  _238
REMARK   99  A    between atoms: _241  and  _243
REMARK  100  A    between atoms: _243  and  _244
REMARK  101  A    between atoms: _243  and  _246
REMARK  102  A    between atoms: _246  and  _247
REMARK  103  A    between atoms: _250  and  _252
REMARK  104  A    between atoms: _252  and  _253
REMARK  105  A    between atoms: _255  and  _257
REMARK  106  A    between atoms: _257  and  _258
REMARK  107  A    between atoms: _257  and  _260
REMARK  108  A    between atoms: _260  and  _261
REMARK  109  A    between atoms: _261  and  _262
REMARK  110  A    between atoms: _262  and  _263
REMARK  111  A    between atoms: _272  and  _274
REMARK  112  A    between atoms: _274  and  _275
REMARK  113  A    between atoms: _274  and  _277
REMARK  114  A    between atoms: _277  and  _278
REMARK  115  A    between atoms: _283  and  _285
REMARK  116  A    between atoms: _285  and  _286
REMARK  117  A    between atoms: _285  and  _288
REMARK  118  A    between atoms: _288  and  _289
REMARK  119  A    between atoms: _289  and  _290
REMARK  120  A    between atoms: _290  and  _291
REMARK  121  A    between atoms: _300  and  _302
REMARK  122  A    between atoms: _302  and  _303
REMARK  123  A    between atoms: _302  and  _305
REMARK  124  A    between atoms: _305  and  _306
REMARK  125  A    between atoms: _309  and  _311
REMARK  126  A    between atoms: _311  and  _312
REMARK  127  A    between atoms: _311  and  _314
REMARK  128  A    between atoms: _314  and  _315
REMARK  129  A    between atoms: _318  and  _320
REMARK  130  A    between atoms: _320  and  _321
REMARK  131  A    between atoms: _320  and  _323
REMARK  132  A    between atoms: _323  and  _324
REMARK  133  A    between atoms: _327  and  _329
REMARK  134  A    between atoms: _329  and  _330
REMARK  135  A    between atoms: _329  and  _332
REMARK  136  A    between atoms: _332  and  _333
REMARK  137  A    between atoms: _336  and  _338
REMARK  138  A    between atoms: _338  and  _339
REMARK  139  A    between atoms: _341  and  _343
REMARK  140  A    between atoms: _343  and  _344
REMARK  141  A    between atoms: _347  and  _349
REMARK  142  A    between atoms: _349  and  _350
REMARK  143  A    between atoms: _349  and  _352
REMARK  144  A    between atoms: _352  and  _353
REMARK  145  A    between atoms: _356  and  _358
REMARK  146  A    between atoms: _358  and  _359
REMARK  147  A    between atoms: _358  and  _361
REMARK  148  A    between atoms: _361  and  _362
REMARK  149  A    between atoms: _365  and  _367
REMARK  150  A    between atoms: _367  and  _368
REMARK  151  A    between atoms: _367  and  _370
REMARK  152  A    between atoms: _370  and  _371
REMARK  153  A    between atoms: _374  and  _376
REMARK  154  A    between atoms: _376  and  _377
REMARK  155  A    between atoms: _376  and  _379
REMARK  156  A    between atoms: _382  and  _384
REMARK  157  A    between atoms: _384  and  _385
REMARK  158  A    between atoms: _384  and  _387
REMARK  159  A    between atoms: _387  and  _388
REMARK  160  A    between atoms: _391  and  _393
REMARK  161  A    between atoms: _393  and  _394
REMARK  162  A    between atoms: _393  and  _396
REMARK  163  A    between atoms: _396  and  _397
REMARK  164  A    between atoms: _397  and  _398
REMARK  165  A    between atoms: _398  and  _399
REMARK  166  A    between atoms: _399  and  _400
REMARK  167  A    between atoms: _404  and  _406
REMARK  168  A    between atoms: _406  and  _407
REMARK  169  A    between atoms: _406  and  _409
REMARK  170  A    between atoms: _409  and  _410
REMARK  171  A    between atoms: _410  and  _411
REMARK  172  A    between atoms: _413  and  _415
REMARK  173  A    between atoms: _415  and  _416
REMARK  174  A    between atoms: _415  and  _418
REMARK  175  A    between atoms: _418  and  _419
REMARK  176  A    between atoms: _422  and  _424
REMARK  177  A    between atoms: _424  and  _425
REMARK  178  A    between atoms: _427  and  _429
REMARK  179  A    between atoms: _429  and  _430
REMARK  180  A    between atoms: _432  and  _434
REMARK  181  A    between atoms: _434  and  _435
REMARK  182  A    between atoms: _434  and  _437
REMARK  183  A    between atoms: _437  and  _438
REMARK  184  A    between atoms: _441  and  _443
REMARK  185  A    between atoms: _443  and  _444
REMARK  186  A    between atoms: _446  and  _448
REMARK  187  A    between atoms: _448  and  _449
REMARK  188  A    between atoms: _451  and  _453
REMARK  189  A    between atoms: _453  and  _454
REMARK  190  A    between atoms: _453  and  _456
REMARK  191  A    between atoms: _456  and  _457
REMARK  192  A    between atoms: _463  and  _465
REMARK  193  A    between atoms: _465  and  _466
REMARK  194  A    between atoms: _465  and  _468
REMARK  195  A    between atoms: _468  and  _469
REMARK  196  A    between atoms: _472  and  _474
REMARK  197  A    between atoms: _474  and  _475
REMARK  198  A    between atoms: _474  and  _477
REMARK  199  A    between atoms: _480  and  _482
REMARK  200  A    between atoms: _482  and  _483
REMARK  201  A    between atoms: _482  and  _485
REMARK  202  A    between atoms: _485  and  _486
REMARK  203  A    between atoms: _489  and  _491
REMARK  204  A    between atoms: _491  and  _492
REMARK  205  A    between atoms: _491  and  _494
REMARK  206  A    between atoms: _494  and  _495
REMARK  207  A    between atoms: _499  and  _500
REMARK  208  A    between atoms: _505  and  _507
REMARK  209  A    between atoms: _507  and  _508
REMARK  210  A    between atoms: _507  and  _510
REMARK  211  A    between atoms: _513  and  _515
REMARK  212  A    between atoms: _515  and  _516
REMARK  213  A    between atoms: _515  and  _518
REMARK  214  A    between atoms: _518  and  _519
REMARK  215  A    between atoms: _524  and  _526
REMARK  216  A    between atoms: _526  and  _527
REMARK  217  A    between atoms: _526  and  _529
REMARK  218  A    between atoms: _529  and  _530
REMARK  219  A    between atoms: _533  and  _535
REMARK  220  A    between atoms: _535  and  _536
REMARK  221  A    between atoms: _535  and  _538
REMARK  222  A    between atoms: _538  and  _539
REMARK  223  A    between atoms: _542  and  _544
REMARK  224  A    between atoms: _544  and  _545
REMARK  225  A    between atoms: _547  and  _549
REMARK  226  A    between atoms: _549  and  _550
REMARK  227  A    between atoms: _549  and  _552
REMARK  228  A    between atoms: _552  and  _553
REMARK  229  A    between atoms: _553  and  _554
REMARK  230  A    between atoms: _554  and  _555
REMARK  231  A    between atoms: _564  and  _566
REMARK  232  A    between atoms: _566  and  _567
REMARK  233  A    between atoms: _566  and  _569
REMARK  234  A    between atoms: _569  and  _570
REMARK                            x       y       z     vdW  Elec       q    Type
REMARK                         _______ _______ _______ _____ _____    ______ ____
ROOT
ATOM      1  O   HOH     1      20.162  18.370  11.538  0.00  0.00    +0.000 OA
ENDROOT
TORSDOF 0
REMARK  Name = ../refined-set-2016/4mc2/4mc2_pocket.pdb
REMARK  234 active torsions:
REMARK  status: ('A' for Active; 'I' for Inactive)
REMARK    1  A    between atoms: _1  and  _3
REMARK    2  A    between atoms: _3  and  _4
REMARK    3  A    between atoms: _3  and  _6
REMARK    4  A    between atoms: _6  and  _7
REMARK    5  A    between atoms: _7  and  _8
REMARK    6  A    between atoms: _8  and  _9
REMARK    7  A    between atoms: _18  and  _20
REMARK    8  A    between atoms: _20  and  _21
REMARK    9  A    between atoms: _20  and  _23
REMARK   10  A    between atoms: _23  and  _24
REMARK   11  A    between atoms: _27  and  _29
REMARK   12  A    between atoms: _29  and  _30
REMARK   13  A    between atoms: _29  and  _32
REMARK   14  A    between atoms: _32  and  _33
REMARK   15  A    between atoms: _36  and  _38
REMARK   16  A    between atoms: _38  and  _39
REMARK   17  A    between atoms: _38  and  _41
REMARK   18  A    between atoms: _41  and  _42
REMARK   19  A    between atoms: _45  and  _47
REMARK   20  A    between atoms: _47  and  _48
REMARK   21  A    between atoms: _47  and  _50
REMARK   22  A    between atoms: _50  and  _51
REMARK   23  A    between atoms: _54  and  _56
REMARK   24  A    between atoms: _56  and  _57
REMARK   25  A    between atoms: _59  and  _61
REMARK   26  A    between atoms: _61  and  _62
REMARK   27  A    between atoms: _65  and  _67
REMARK   28  A    between atoms: _67  and  _68
REMARK   29  A    between atoms: _67  and  _70
REMARK   30  A    between atoms: _70  and  _71
REMARK   31  A    between atoms: _74  and  _76
REMARK   32  A    between atoms: _76  and  _77
REMARK   33  A    between atoms: _76  and  _79
REMARK   34  A    between atoms: _79  and  _80
REMARK   35  A    between atoms: _83  and  _85
REMARK   36  A    between atoms: _85  and  _86
REMARK   37  A    between atoms: _85  and  _88
REMARK   38  A    between atoms: _88  and  _89
REMARK   39  A    between atoms: _92  and  _94
REMARK   40  A    between atoms: _94  and  _95
REMARK   41  A    between atoms: _94  and  _97
REMARK   42  A    between atoms: _100  and  _102
REMARK   43  A    between atoms: _102  and  _103
REMARK   44  A    between atoms: _102  and  _105
REMARK   45  A    between atoms: _105  and  _106
REMARK   46  A    between atoms: _106  and  _107
REMARK   47  A    between atoms: _107  and  _108
REMARK   48  A    between atoms: _108  and  _109
REMARK   49  A    between atoms: _113  and  _115
REMARK   50  A    between atoms: _115  and  _116
REMARK   51  A    between atoms: _115  and  _118
REMARK   52  A    between atoms: _118  and  _119
REMARK   53  A    between atoms: _119  and  _120
REMARK   54  A    between atoms: _122  and  _124
REMARK   55  A    between atoms: _124  and  _125
REMARK   56  A    between atoms: _124  and  _127
REMARK   57  A    between atoms: _127  and  _128
REMARK   58  A    between atoms: _131  and  _133
REMARK   59  A    between atoms: _133  and  _134
REMARK   60  A    between atoms: _136  and  _138
REMARK   61  A    between atoms: _138  and  _139
REMARK   62  A    between atoms: _141  and  _143
REMARK   63  A    between atoms: _143  and  _144
REMARK   64  A    between atoms: _143  and  _146
REMARK   65  A    between atoms: _146  and  _147
REMARK   66  A    between atoms: _150  and  _152
REMARK   67  A    between atoms: _152  and  _153
REMARK   68  A    between atoms: _155  and  _157
REMARK   69  A    between atoms: _157  and  _158
REMARK   70  A    between atoms: _160  and  _162
REMARK   71  A    between atoms: _162  and  _163
REMARK   72  A    between atoms: _162  and  _165
REMARK   73  A    between atoms: _165  and  _166
REMARK   74  A    between atoms: _172  and  _174
REMARK   75  A    between atoms: _174  and  _175
REMARK   76  A    between atoms: _174  and  _177
REMARK   77  A    between atoms: _177  and  _178
REMARK   78  A    between atoms: _181  and  _183
REMARK   79  A    between atoms: _183  and  _184
REMARK   80  A    between atoms: _183  and  _186
REMARK   81  A    between atoms: _186  and  _187
REMARK   82  A    between atoms: _191  and  _192
REMARK   83  A    between atoms: _197  and  _199
REMARK   84  A    between atoms: _199  and  _200
REMARK   85  A    between atoms: _199  and  _202
REMARK   86  A    between atoms: _202  and  _203
REMARK   87  A    between atoms: _207  and  _208
REMARK   88  A    between atoms: _213  and  _215
REMARK   89  A    between atoms: _215  and  _216
REMARK   90  A    between atoms: _215  and  _218
REMARK   91  A    between atoms: _221  and  _223
REMARK   92  A    between atoms: _223  and  _224
REMARK   93  A    between atoms: _223  and  _226
REMARK   94  A    between atoms: _226  and  _227
REMARK   95  A    between atoms: _232  and  _234
REMARK   96  A    between atoms: _234  and  _235
REMARK   97  A    between atoms: _234  and  _237
REMARK   98  A    between atoms: _237  and  _238
REMARK   99  A    between atoms: _241  and  _243
REMARK  100  A    between atoms: _243  and  _244
REMARK  101  A    between atoms: _243  and  _246
REMARK  102  A    between atoms: _246  and  _247
REMARK  103  A    between atoms: _250  and  _252
REMARK  104  A    between atoms: _252  and  _253
REMARK  105  A    between atoms: _255  and  _257
REMARK  106  A    between atoms: _257  and  _258
REMARK  107  A    between atoms: _257  and  _260
REMARK  108  A    between atoms: _260  and  _261
REMARK  109  A    between atoms: _261  and  _262
REMARK  110  A    between atoms: _262  and  _263
REMARK  111  A    between atoms: _272  and  _274
REMARK  112  A    between atoms: _274  and  _275
REMARK  113  A    between atoms: _274  and  _277
REMARK  114  A    between atoms: _277  and  _278
REMARK  115  A    between atoms: _283  and  _285
REMARK  116  A    between atoms: _285  and  _286
REMARK  117  A    between atoms: _285  and  _288
REMARK  118  A    between atoms: _288  and  _289
REMARK  119  A    between atoms: _289  and  _290
REMARK  120  A    between atoms: _290  and  _291
REMARK  121  A    between atoms: _300  and  _302
REMARK  122  A    between atoms: _302  and  _303
REMARK  123  A    between atoms: _302  and  _305
REMARK  124  A    between atoms: _305  and  _306
REMARK  125  A    between atoms: _309  and  _311
REMARK  126  A    between atoms: _311  and  _312
REMARK  127  A    between atoms: _311  and  _314
REMARK  128  A    between atoms: _314  and  _315
REMARK  129  A    between atoms: _318  and  _320
REMARK  130  A    between atoms: _320  and  _321
REMARK  131  A    between atoms: _320  and  _323
REMARK  132  A    between atoms: _323  and  _324
REMARK  133  A    between atoms: _327  and  _329
REMARK  134  A    between atoms: _329  and  _330
REMARK  135  A    between atoms: _329  and  _332
REMARK  136  A    between atoms: _332  and  _333
REMARK  137  A    between atoms: _336  and  _338
REMARK  138  A    between atoms: _338  and  _339
REMARK  139  A    between atoms: _341  and  _343
REMARK  140  A    between atoms: _343  and  _344
REMARK  141  A    between atoms: _347  and  _349
REMARK  142  A    between atoms: _349  and  _350
REMARK  143  A    between atoms: _349  and  _352
REMARK  144  A    between atoms: _352  and  _353
REMARK  145  A    between atoms: _356  and  _358
REMARK  146  A    between atoms: _358  and  _359
REMARK  147  A    between atoms: _358  and  _361
REMARK  148  A    between atoms: _361  and  _362
REMARK  149  A    between atoms: _365  and  _367
REMARK  150  A    between atoms: _367  and  _368
REMARK  151  A    between atoms: _367  and  _370
REMARK  152  A    between atoms: _370  and  _371
REMARK  153  A    between atoms: _374  and  _376
REMARK  154  A    between atoms: _376  and  _377
REMARK  155  A    between atoms: _376  and  _379
REMARK  156  A    between atoms: _382  and  _384
REMARK  157  A    between atoms: _384  and  _385
REMARK  158  A    between atoms: _384  and  _387
REMARK  159  A    between atoms: _387  and  _388
REMARK  160  A    between atoms: _391  and  _393
REMARK  161  A    between atoms: _393  and  _394
REMARK  162  A    between atoms: _393  and  _396
REMARK  163  A    between atoms: _396  and  _397
REMARK  164  A    between atoms: _397  and  _398
REMARK  165  A    between atoms: _398  and  _399
REMARK  166  A    between atoms: _399  and  _400
REMARK  167  A    between atoms: _404  and  _406
REMARK  168  A    between atoms: _406  and  _407
REMARK  169  A    between atoms: _406  and  _409
REMARK  170  A    between atoms: _409  and  _410
REMARK  171  A    between atoms: _410  and  _411
REMARK  172  A    between atoms: _413  and  _415
REMARK  173  A    between atoms: _415  and  _416
REMARK  174  A    between atoms: _415  and  _418
REMARK  175  A    between atoms: _418  and  _419
REMARK  176  A    between atoms: _422  and  _424
REMARK  177  A    between atoms: _424  and  _425
REMARK  178  A    between atoms: _427  and  _429
REMARK  179  A    between atoms: _429  and  _430
REMARK  180  A    between atoms: _432  and  _434
REMARK  181  A    between atoms: _434  and  _435
REMARK  182  A    between atoms: _434  and  _437
REMARK  183  A    between atoms: _437  and  _438
REMARK  184  A    between atoms: _441  and  _443
REMARK  185  A    between atoms: _443  and  _444
REMARK  186  A    between atoms: _446  and  _448
REMARK  187  A    between atoms: _448  and  _449
REMARK  188  A    between atoms: _451  and  _453
REMARK  189  A    between atoms: _453  and  _454
REMARK  190  A    between atoms: _453  and  _456
REMARK  191  A    between atoms: _456  and  _457
REMARK  192  A    between atoms: _463  and  _465
REMARK  193  A    between atoms: _465  and  _466
REMARK  194  A    between atoms: _465  and  _468
REMARK  195  A    between atoms: _468  and  _469
REMARK  196  A    between atoms: _472  and  _474
REMARK  197  A    between atoms: _474  and  _475
REMARK  198  A    between atoms: _474  and  _477
REMARK  199  A    between atoms: _480  and  _482
REMARK  200  A    between atoms: _482  and  _483
REMARK  201  A    between atoms: _482  and  _485
REMARK  202  A    between atoms: _485  and  _486
REMARK  203  A    between atoms: _489  and  _491
REMARK  204  A    between atoms: _491  and  _492
REMARK  205  A    between atoms: _491  and  _494
REMARK  206  A    between atoms: _494  and  _495
REMARK  207  A    between atoms: _499  and  _500
REMARK  208  A    between atoms: _505  and  _507
REMARK  209  A    between atoms: _507  and  _508
REMARK  210  A    between atoms: _507  and  _510
REMARK  211  A    between atoms: _513  and  _515
REMARK  212  A    between atoms: _515  and  _516
REMARK  213  A    between atoms: _515  and  _518
REMARK  214  A    between atoms: _518  and  _519
REMARK  215  A    between atoms: _524  and  _526
REMARK  216  A    between atoms: _526  and  _527
REMARK  217  A    between atoms: _526  and  _529
REMARK  218  A    between atoms: _529  and  _530
REMARK  219  A    between atoms: _533  and  _535
REMARK  220  A    between atoms: _535  and  _536
REMARK  221  A    between atoms: _535  and  _538
REMARK  222  A    between atoms: _538  and  _539
REMARK  223  A    between atoms: _542  and  _544
REMARK  224  A    between atoms: _544  and  _545
REMARK  225  A    between atoms: _547  and  _549
REMARK  226  A    between atoms: _549  and  _550
REMARK  227  A    between atoms: _549  and  _552
REMARK  228  A    between atoms: _552  and  _553
REMARK  229  A    between atoms: _553  and  _554
REMARK  230  A    between atoms: _554  and  _555
REMARK  231  A    between atoms: _564  and  _566
REMARK  232  A    between atoms: _566  and  _567
REMARK  233  A    between atoms: _566  and  _569
REMARK  234  A    between atoms: _569  and  _570
REMARK                            x       y       z     vdW  Elec       q    Type
REMARK                         _______ _______ _______ _____ _____    ______ ____
ROOT
ATOM      1  O   HOH     1      21.781  23.778   4.747  0.00  0.00    +0.000 OA
ENDROOT
TORSDOF 0
REMARK  Name = ../refined-set-2016/4mc2/4mc2_pocket.pdb
REMARK  234 active torsions:
REMARK  status: ('A' for Active; 'I' for Inactive)
REMARK    1  A    between atoms: _1  and  _3
REMARK    2  A    between atoms: _3  and  _4
REMARK    3  A    between atoms: _3  and  _6
REMARK    4  A    between atoms: _6  and  _7
REMARK    5  A    between atoms: _7  and  _8
REMARK    6  A    between atoms: _8  and  _9
REMARK    7  A    between atoms: _18  and  _20
REMARK    8  A    between atoms: _20  and  _21
REMARK    9  A    between atoms: _20  and  _23
REMARK   10  A    between atoms: _23  and  _24
REMARK   11  A    between atoms: _27  and  _29
REMARK   12  A    between atoms: _29  and  _30
REMARK   13  A    between atoms: _29  and  _32
REMARK   14  A    between atoms: _32  and  _33
REMARK   15  A    between atoms: _36  and  _38
REMARK   16  A    between atoms: _38  and  _39
REMARK   17  A    between atoms: _38  and  _41
REMARK   18  A    between atoms: _41  and  _42
REMARK   19  A    between atoms: _45  and  _47
REMARK   20  A    between atoms: _47  and  _48
REMARK   21  A    between atoms: _47  and  _50
REMARK   22  A    between atoms: _50  and  _51
REMARK   23  A    between atoms: _54  and  _56
REMARK   24  A    between atoms: _56  and  _57
REMARK   25  A    between atoms: _59  and  _61
REMARK   26  A    between atoms: _61  and  _62
REMARK   27  A    between atoms: _65  and  _67
REMARK   28  A    between atoms: _67  and  _68
REMARK   29  A    between atoms: _67  and  _70
REMARK   30  A    between atoms: _70  and  _71
REMARK   31  A    between atoms: _74  and  _76
REMARK   32  A    between atoms: _76  and  _77
REMARK   33  A    between atoms: _76  and  _79
REMARK   34  A    between atoms: _79  and  _80
REMARK   35  A    between atoms: _83  and  _85
REMARK   36  A    between atoms: _85  and  _86
REMARK   37  A    between atoms: _85  and  _88
REMARK   38  A    between atoms: _88  and  _89
REMARK   39  A    between atoms: _92  and  _94
REMARK   40  A    between atoms: _94  and  _95
REMARK   41  A    between atoms: _94  and  _97
REMARK   42  A    between atoms: _100  and  _102
REMARK   43  A    between atoms: _102  and  _103
REMARK   44  A    between atoms: _102  and  _105
REMARK   45  A    between atoms: _105  and  _106
REMARK   46  A    between atoms: _106  and  _107
REMARK   47  A    between atoms: _107  and  _108
REMARK   48  A    between atoms: _108  and  _109
REMARK   49  A    between atoms: _113  and  _115
REMARK   50  A    between atoms: _115  and  _116
REMARK   51  A    between atoms: _115  and  _118
REMARK   52  A    between atoms: _118  and  _119
REMARK   53  A    between atoms: _119  and  _120
REMARK   54  A    between atoms: _122  and  _124
REMARK   55  A    between atoms: _124  and  _125
REMARK   56  A    between atoms: _124  and  _127
REMARK   57  A    between atoms: _127  and  _128
REMARK   58  A    between atoms: _131  and  _133
REMARK   59  A    between atoms: _133  and  _134
REMARK   60  A    between atoms: _136  and  _138
REMARK   61  A    between atoms: _138  and  _139
REMARK   62  A    between atoms: _141  and  _143
REMARK   63  A    between atoms: _143  and  _144
REMARK   64  A    between atoms: _143  and  _146
REMARK   65  A    between atoms: _146  and  _147
REMARK   66  A    between atoms: _150  and  _152
REMARK   67  A    between atoms: _152  and  _153
REMARK   68  A    between atoms: _155  and  _157
REMARK   69  A    between atoms: _157  and  _158
REMARK   70  A    between atoms: _160  and  _162
REMARK   71  A    between atoms: _162  and  _163
REMARK   72  A    between atoms: _162  and  _165
REMARK   73  A    between atoms: _165  and  _166
REMARK   74  A    between atoms: _172  and  _174
REMARK   75  A    between atoms: _174  and  _175
REMARK   76  A    between atoms: _174  and  _177
REMARK   77  A    between atoms: _177  and  _178
REMARK   78  A    between atoms: _181  and  _183
REMARK   79  A    between atoms: _183  and  _184
REMARK   80  A    between atoms: _183  and  _186
REMARK   81  A    between atoms: _186  and  _187
REMARK   82  A    between atoms: _191  and  _192
REMARK   83  A    between atoms: _197  and  _199
REMARK   84  A    between atoms: _199  and  _200
REMARK   85  A    between atoms: _199  and  _202
REMARK   86  A    between atoms: _202  and  _203
REMARK   87  A    between atoms: _207  and  _208
REMARK   88  A    between atoms: _213  and  _215
REMARK   89  A    between atoms: _215  and  _216
REMARK   90  A    between atoms: _215  and  _218
REMARK   91  A    between atoms: _221  and  _223
REMARK   92  A    between atoms: _223  and  _224
REMARK   93  A    between atoms: _223  and  _226
REMARK   94  A    between atoms: _226  and  _227
REMARK   95  A    between atoms: _232  and  _234
REMARK   96  A    between atoms: _234  and  _235
REMARK   97  A    between atoms: _234  and  _237
REMARK   98  A    between atoms: _237  and  _238
REMARK   99  A    between atoms: _241  and  _243
REMARK  100  A    between atoms: _243  and  _244
REMARK  101  A    between atoms: _243  and  _246
REMARK  102  A    between atoms: _246  and  _247
REMARK  103  A    between atoms: _250  and  _252
REMARK  104  A    between atoms: _252  and  _253
REMARK  105  A    between atoms: _255  and  _257
REMARK  106  A    between atoms: _257  and  _258
REMARK  107  A    between atoms: _257  and  _260
REMARK  108  A    between atoms: _260  and  _261
REMARK  109  A    between atoms: _261  and  _262
REMARK  110  A    between atoms: _262  and  _263
REMARK  111  A    between atoms: _272  and  _274
REMARK  112  A    between atoms: _274  and  _275
REMARK  113  A    between atoms: _274  and  _277
REMARK  114  A    between atoms: _277  and  _278
REMARK  115  A    between atoms: _283  and  _285
REMARK  116  A    between atoms: _285  and  _286
REMARK  117  A    between atoms: _285  and  _288
REMARK  118  A    between atoms: _288  and  _289
REMARK  119  A    between atoms: _289  and  _290
REMARK  120  A    between atoms: _290  and  _291
REMARK  121  A    between atoms: _300  and  _302
REMARK  122  A    between atoms: _302  and  _303
REMARK  123  A    between atoms: _302  and  _305
REMARK  124  A    between atoms: _305  and  _306
REMARK  125  A    between atoms: _309  and  _311
REMARK  126  A    between atoms: _311  and  _312
REMARK  127  A    between atoms: _311  and  _314
REMARK  128  A    between atoms: _314  and  _315
REMARK  129  A    between atoms: _318  and  _320
REMARK  130  A    between atoms: _320  and  _321
REMARK  131  A    between atoms: _320  and  _323
REMARK  132  A    between atoms: _323  and  _324
REMARK  133  A    between atoms: _327  and  _329
REMARK  134  A    between atoms: _329  and  _330
REMARK  135  A    between atoms: _329  and  _332
REMARK  136  A    between atoms: _332  and  _333
REMARK  137  A    between atoms: _336  and  _338
REMARK  138  A    between atoms: _338  and  _339
REMARK  139  A    between atoms: _341  and  _343
REMARK  140  A    between atoms: _343  and  _344
REMARK  141  A    between atoms: _347  and  _349
REMARK  142  A    between atoms: _349  and  _350
REMARK  143  A    between atoms: _349  and  _352
REMARK  144  A    between atoms: _352  and  _353
REMARK  145  A    between atoms: _356  and  _358
REMARK  146  A    between atoms: _358  and  _359
REMARK  147  A    between atoms: _358  and  _361
REMARK  148  A    between atoms: _361  and  _362
REMARK  149  A    between atoms: _365  and  _367
REMARK  150  A    between atoms: _367  and  _368
REMARK  151  A    between atoms: _367  and  _370
REMARK  152  A    between atoms: _370  and  _371
REMARK  153  A    between atoms: _374  and  _376
REMARK  154  A    between atoms: _376  and  _377
REMARK  155  A    between atoms: _376  and  _379
REMARK  156  A    between atoms: _382  and  _384
REMARK  157  A    between atoms: _384  and  _385
REMARK  158  A    between atoms: _384  and  _387
REMARK  159  A    between atoms: _387  and  _388
REMARK  160  A    between atoms: _391  and  _393
REMARK  161  A    between atoms: _393  and  _394
REMARK  162  A    between atoms: _393  and  _396
REMARK  163  A    between atoms: _396  and  _397
REMARK  164  A    between atoms: _397  and  _398
REMARK  165  A    between atoms: _398  and  _399
REMARK  166  A    between atoms: _399  and  _400
REMARK  167  A    between atoms: _404  and  _406
REMARK  168  A    between atoms: _406  and  _407
REMARK  169  A    between atoms: _406  and  _409
REMARK  170  A    between atoms: _409  and  _410
REMARK  171  A    between atoms: _410  and  _411
REMARK  172  A    between atoms: _413  and  _415
REMARK  173  A    between atoms: _415  and  _416
REMARK  174  A    between atoms: _415  and  _418
REMARK  175  A    between atoms: _418  and  _419
REMARK  176  A    between atoms: _422  and  _424
REMARK  177  A    between atoms: _424  and  _425
REMARK  178  A    between atoms: _427  and  _429
REMARK  179  A    between atoms: _429  and  _430
REMARK  180  A    between atoms: _432  and  _434
REMARK  181  A    between atoms: _434  and  _435
REMARK  182  A    between atoms: _434  and  _437
REMARK  183  A    between atoms: _437  and  _438
REMARK  184  A    between atoms: _441  and  _443
REMARK  185  A    between atoms: _443  and  _444
REMARK  186  A    between atoms: _446  and  _448
REMARK  187  A    between atoms: _448  and  _449
REMARK  188  A    between atoms: _451  and  _453
REMARK  189  A    between atoms: _453  and  _454
REMARK  190  A    between atoms: _453  and  _456
REMARK  191  A    between atoms: _456  and  _457
REMARK  192  A    between atoms: _463  and  _465
REMARK  193  A    between atoms: _465  and  _466
REMARK  194  A    between atoms: _465  and  _468
REMARK  195  A    between atoms: _468  and  _469
REMARK  196  A    between atoms: _472  and  _474
REMARK  197  A    between atoms: _474  and  _475
REMARK  198  A    between atoms: _474  and  _477
REMARK  199  A    between atoms: _480  and  _482
REMARK  200  A    between atoms: _482  and  _483
REMARK  201  A    between atoms: _482  and  _485
REMARK  202  A    between atoms: _485  and  _486
REMARK  203  A    between atoms: _489  and  _491
REMARK  204  A    between atoms: _491  and  _492
REMARK  205  A    between atoms: _491  and  _494
REMARK  206  A    between atoms: _494  and  _495
REMARK  207  A    between atoms: _499  and  _500
REMARK  208  A    between atoms: _505  and  _507
REMARK  209  A    between atoms: _507  and  _508
REMARK  210  A    between atoms: _507  and  _510
REMARK  211  A    between atoms: _513  and  _515
REMARK  212  A    between atoms: _515  and  _516
REMARK  213  A    between atoms: _515  and  _518
REMARK  214  A    between atoms: _518  and  _519
REMARK  215  A    between atoms: _524  and  _526
REMARK  216  A    between atoms: _526  and  _527
REMARK  217  A    between atoms: _526  and  _529
REMARK  218  A    between atoms: _529  and  _530
REMARK  219  A    between atoms: _533  and  _535
REMARK  220  A    between atoms: _535  and  _536
REMARK  221  A    between atoms: _535  and  _538
REMARK  222  A    between atoms: _538  and  _539
REMARK  223  A    between atoms: _542  and  _544
REMARK  224  A    between atoms: _544  and  _545
REMARK  225  A    between atoms: _547  and  _549
REMARK  226  A    between atoms: _549  and  _550
REMARK  227  A    between atoms: _549  and  _552
REMARK  228  A    between atoms: _552  and  _553
REMARK  229  A    between atoms: _553  and  _554
REMARK  230  A    between atoms: _554  and  _555
REMARK  231  A    between atoms: _564  and  _566
REMARK  232  A    between atoms: _566  and  _567
REMARK  233  A    between atoms: _566  and  _569
REMARK  234  A    between atoms: _569  and  _570
REMARK                            x       y       z     vdW  Elec       q    Type
REMARK                         _______ _______ _______ _____ _____    ______ ____
ROOT
ATOM      1  O   HOH     1      25.000  18.998   0.315  0.00  0.00    +0.000 OA
ENDROOT
TORSDOF 0
REMARK  Name = ../refined-set-2016/4mc2/4mc2_pocket.pdb
REMARK  234 active torsions:
REMARK  status: ('A' for Active; 'I' for Inactive)
REMARK    1  A    between atoms: _1  and  _3
REMARK    2  A    between atoms: _3  and  _4
REMARK    3  A    between atoms: _3  and  _6
REMARK    4  A    between atoms: _6  and  _7
REMARK    5  A    between atoms: _7  and  _8
REMARK    6  A    between atoms: _8  and  _9
REMARK    7  A    between atoms: _18  and  _20
REMARK    8  A    between atoms: _20  and  _21
REMARK    9  A    between atoms: _20  and  _23
REMARK   10  A    between atoms: _23  and  _24
REMARK   11  A    between atoms: _27  and  _29
REMARK   12  A    between atoms: _29  and  _30
REMARK   13  A    between atoms: _29  and  _32
REMARK   14  A    between atoms: _32  and  _33
REMARK   15  A    between atoms: _36  and  _38
REMARK   16  A    between atoms: _38  and  _39
REMARK   17  A    between atoms: _38  and  _41
REMARK   18  A    between atoms: _41  and  _42
REMARK   19  A    between atoms: _45  and  _47
REMARK   20  A    between atoms: _47  and  _48
REMARK   21  A    between atoms: _47  and  _50
REMARK   22  A    between atoms: _50  and  _51
REMARK   23  A    between atoms: _54  and  _56
REMARK   24  A    between atoms: _56  and  _57
REMARK   25  A    between atoms: _59  and  _61
REMARK   26  A    between atoms: _61  and  _62
REMARK   27  A    between atoms: _65  and  _67
REMARK   28  A    between atoms: _67  and  _68
REMARK   29  A    between atoms: _67  and  _70
REMARK   30  A    between atoms: _70  and  _71
REMARK   31  A    between atoms: _74  and  _76
REMARK   32  A    between atoms: _76  and  _77
REMARK   33  A    between atoms: _76  and  _79
REMARK   34  A    between atoms: _79  and  _80
REMARK   35  A    between atoms: _83  and  _85
REMARK   36  A    between atoms: _85  and  _86
REMARK   37  A    between atoms: _85  and  _88
REMARK   38  A    between atoms: _88  and  _89
REMARK   39  A    between atoms: _92  and  _94
REMARK   40  A    between atoms: _94  and  _95
REMARK   41  A    between atoms: _94  and  _97
REMARK   42  A    between atoms: _100  and  _102
REMARK   43  A    between atoms: _102  and  _103
REMARK   44  A    between atoms: _102  and  _105
REMARK   45  A    between atoms: _105  and  _106
REMARK   46  A    between atoms: _106  and  _107
REMARK   47  A    between atoms: _107  and  _108
REMARK   48  A    between atoms: _108  and  _109
REMARK   49  A    between atoms: _113  and  _115
REMARK   50  A    between atoms: _115  and  _116
REMARK   51  A    between atoms: _115  and  _118
REMARK   52  A    between atoms: _118  and  _119
REMARK   53  A    between atoms: _119  and  _120
REMARK   54  A    between atoms: _122  and  _124
REMARK   55  A    between atoms: _124  and  _125
REMARK   56  A    between atoms: _124  and  _127
REMARK   57  A    between atoms: _127  and  _128
REMARK   58  A    between atoms: _131  and  _133
REMARK   59  A    between atoms: _133  and  _134
REMARK   60  A    between atoms: _136  and  _138
REMARK   61  A    between atoms: _138  and  _139
REMARK   62  A    between atoms: _141  and  _143
REMARK   63  A    between atoms: _143  and  _144
REMARK   64  A    between atoms: _143  and  _146
REMARK   65  A    between atoms: _146  and  _147
REMARK   66  A    between atoms: _150  and  _152
REMARK   67  A    between atoms: _152  and  _153
REMARK   68  A    between atoms: _155  and  _157
REMARK   69  A    between atoms: _157  and  _158
REMARK   70  A    between atoms: _160  and  _162
REMARK   71  A    between atoms: _162  and  _163
REMARK   72  A    between atoms: _162  and  _165
REMARK   73  A    between atoms: _165  and  _166
REMARK   74  A    between atoms: _172  and  _174
REMARK   75  A    between atoms: _174  and  _175
REMARK   76  A    between atoms: _174  and  _177
REMARK   77  A    between atoms: _177  and  _178
REMARK   78  A    between atoms: _181  and  _183
REMARK   79  A    between atoms: _183  and  _184
REMARK   80  A    between atoms: _183  and  _186
REMARK   81  A    between atoms: _186  and  _187
REMARK   82  A    between atoms: _191  and  _192
REMARK   83  A    between atoms: _197  and  _199
REMARK   84  A    between atoms: _199  and  _200
REMARK   85  A    between atoms: _199  and  _202
REMARK   86  A    between atoms: _202  and  _203
REMARK   87  A    between atoms: _207  and  _208
REMARK   88  A    between atoms: _213  and  _215
REMARK   89  A    between atoms: _215  and  _216
REMARK   90  A    between atoms: _215  and  _218
REMARK   91  A    between atoms: _221  and  _223
REMARK   92  A    between atoms: _223  and  _224
REMARK   93  A    between atoms: _223  and  _226
REMARK   94  A    between atoms: _226  and  _227
REMARK   95  A    between atoms: _232  and  _234
REMARK   96  A    between atoms: _234  and  _235
REMARK   97  A    between atoms: _234  and  _237
REMARK   98  A    between atoms: _237  and  _238
REMARK   99  A    between atoms: _241  and  _243
REMARK  100  A    between atoms: _243  and  _244
REMARK  101  A    between atoms: _243  and  _246
REMARK  102  A    between atoms: _246  and  _247
REMARK  103  A    between atoms: _250  and  _252
REMARK  104  A    between atoms: _252  and  _253
REMARK  105  A    between atoms: _255  and  _257
REMARK  106  A    between atoms: _257  and  _258
REMARK  107  A    between atoms: _257  and  _260
REMARK  108  A    between atoms: _260  and  _261
REMARK  109  A    between atoms: _261  and  _262
REMARK  110  A    between atoms: _262  and  _263
REMARK  111  A    between atoms: _272  and  _274
REMARK  112  A    between atoms: _274  and  _275
REMARK  113  A    between atoms: _274  and  _277
REMARK  114  A    between atoms: _277  and  _278
REMARK  115  A    between atoms: _283  and  _285
REMARK  116  A    between atoms: _285  and  _286
REMARK  117  A    between atoms: _285  and  _288
REMARK  118  A    between atoms: _288  and  _289
REMARK  119  A    between atoms: _289  and  _290
REMARK  120  A    between atoms: _290  and  _291
REMARK  121  A    between atoms: _300  and  _302
REMARK  122  A    between atoms: _302  and  _303
REMARK  123  A    between atoms: _302  and  _305
REMARK  124  A    between atoms: _305  and  _306
REMARK  125  A    between atoms: _309  and  _311
REMARK  126  A    between atoms: _311  and  _312
REMARK  127  A    between atoms: _311  and  _314
REMARK  128  A    between atoms: _314  and  _315
REMARK  129  A    between atoms: _318  and  _320
REMARK  130  A    between atoms: _320  and  _321
REMARK  131  A    between atoms: _320  and  _323
REMARK  132  A    between atoms: _323  and  _324
REMARK  133  A    between atoms: _327  and  _329
REMARK  134  A    between atoms: _329  and  _330
REMARK  135  A    between atoms: _329  and  _332
REMARK  136  A    between atoms: _332  and  _333
REMARK  137  A    between atoms: _336  and  _338
REMARK  138  A    between atoms: _338  and  _339
REMARK  139  A    between atoms: _341  and  _343
REMARK  140  A    between atoms: _343  and  _344
REMARK  141  A    between atoms: _347  and  _349
REMARK  142  A    between atoms: _349  and  _350
REMARK  143  A    between atoms: _349  and  _352
REMARK  144  A    between atoms: _352  and  _353
REMARK  145  A    between atoms: _356  and  _358
REMARK  146  A    between atoms: _358  and  _359
REMARK  147  A    between atoms: _358  and  _361
REMARK  148  A    between atoms: _361  and  _362
REMARK  149  A    between atoms: _365  and  _367
REMARK  150  A    between atoms: _367  and  _368
REMARK  151  A    between atoms: _367  and  _370
REMARK  152  A    between atoms: _370  and  _371
REMARK  153  A    between atoms: _374  and  _376
REMARK  154  A    between atoms: _376  and  _377
REMARK  155  A    between atoms: _376  and  _379
REMARK  156  A    between atoms: _382  and  _384
REMARK  157  A    between atoms: _384  and  _385
REMARK  158  A    between atoms: _384  and  _387
REMARK  159  A    between atoms: _387  and  _388
REMARK  160  A    between atoms: _391  and  _393
REMARK  161  A    between atoms: _393  and  _394
REMARK  162  A    between atoms: _393  and  _396
REMARK  163  A    between atoms: _396  and  _397
REMARK  164  A    between atoms: _397  and  _398
REMARK  165  A    between atoms: _398  and  _399
REMARK  166  A    between atoms: _399  and  _400
REMARK  167  A    between atoms: _404  and  _406
REMARK  168  A    between atoms: _406  and  _407
REMARK  169  A    between atoms: _406  and  _409
REMARK  170  A    between atoms: _409  and  _410
REMARK  171  A    between atoms: _410  and  _411
REMARK  172  A    between atoms: _413  and  _415
REMARK  173  A    between atoms: _415  and  _416
REMARK  174  A    between atoms: _415  and  _418
REMARK  175  A    between atoms: _418  and  _419
REMARK  176  A    between atoms: _422  and  _424
REMARK  177  A    between atoms: _424  and  _425
REMARK  178  A    between atoms: _427  and  _429
REMARK  179  A    between atoms: _429  and  _430
REMARK  180  A    between atoms: _432  and  _434
REMARK  181  A    between atoms: _434  and  _435
REMARK  182  A    between atoms: _434  and  _437
REMARK  183  A    between atoms: _437  and  _438
REMARK  184  A    between atoms: _441  and  _443
REMARK  185  A    between atoms: _443  and  _444
REMARK  186  A    between atoms: _446  and  _448
REMARK  187  A    between atoms: _448  and  _449
REMARK  188  A    between atoms: _451  and  _453
REMARK  189  A    between atoms: _453  and  _454
REMARK  190  A    between atoms: _453  and  _456
REMARK  191  A    between atoms: _456  and  _457
REMARK  192  A    between atoms: _463  and  _465
REMARK  193  A    between atoms: _465  and  _466
REMARK  194  A    between atoms: _465  and  _468
REMARK  195  A    between atoms: _468  and  _469
REMARK  196  A    between atoms: _472  and  _474
REMARK  197  A    between atoms: _474  and  _475
REMARK  198  A    between atoms: _474  and  _477
REMARK  199  A    between atoms: _480  and  _482
REMARK  200  A    between atoms: _482  and  _483
REMARK  201  A    between atoms: _482  and  _485
REMARK  202  A    between atoms: _485  and  _486
REMARK  203  A    between atoms: _489  and  _491
REMARK  204  A    between atoms: _491  and  _492
REMARK  205  A    between atoms: _491  and  _494
REMARK  206  A    between atoms: _494  and  _495
REMARK  207  A    between atoms: _499  and  _500
REMARK  208  A    between atoms: _505  and  _507
REMARK  209  A    between atoms: _507  and  _508
REMARK  210  A    between atoms: _507  and  _510
REMARK  211  A    between atoms: _513  and  _515
REMARK  212  A    between atoms: _515  and  _516
REMARK  213  A    between atoms: _515  and  _518
REMARK  214  A    between atoms: _518  and  _519
REMARK  215  A    between atoms: _524  and  _526
REMARK  216  A    between atoms: _526  and  _527
REMARK  217  A    between atoms: _526  and  _529
REMARK  218  A    between atoms: _529  and  _530
REMARK  219  A    between atoms: _533  and  _535
REMARK  220  A    between atoms: _535  and  _536
REMARK  221  A    between atoms: _535  and  _538
REMARK  222  A    between atoms: _538  and  _539
REMARK  223  A    between atoms: _542  and  _544
REMARK  224  A    between atoms: _544  and  _545
REMARK  225  A    between atoms: _547  and  _549
REMARK  226  A    between atoms: _549  and  _550
REMARK  227  A    between atoms: _549  and  _552
REMARK  228  A    between atoms: _552  and  _553
REMARK  229  A    between atoms: _553  and  _554
REMARK  230  A    between atoms: _554  and  _555
REMARK  231  A    between atoms: _564  and  _566
REMARK  232  A    between atoms: _566  and  _567
REMARK  233  A    between atoms: _566  and  _569
REMARK  234  A    between atoms: _569  and  _570
REMARK                            x       y       z     vdW  Elec       q    Type
REMARK                         _______ _______ _______ _____ _____    ______ ____
ROOT
ATOM      1  O   HOH     1      22.499  15.522  -2.260  0.00  0.00    +0.000 OA
ENDROOT
TORSDOF 0
REMARK  Name = ../refined-set-2016/4mc2/4mc2_pocket.pdb
REMARK  234 active torsions:
REMARK  status: ('A' for Active; 'I' for Inactive)
REMARK    1  A    between atoms: _1  and  _3
REMARK    2  A    between atoms: _3  and  _4
REMARK    3  A    between atoms: _3  and  _6
REMARK    4  A    between atoms: _6  and  _7
REMARK    5  A    between atoms: _7  and  _8
REMARK    6  A    between atoms: _8  and  _9
REMARK    7  A    between atoms: _18  and  _20
REMARK    8  A    between atoms: _20  and  _21
REMARK    9  A    between atoms: _20  and  _23
REMARK   10  A    between atoms: _23  and  _24
REMARK   11  A    between atoms: _27  and  _29
REMARK   12  A    between atoms: _29  and  _30
REMARK   13  A    between atoms: _29  and  _32
REMARK   14  A    between atoms: _32  and  _33
REMARK   15  A    between atoms: _36  and  _38
REMARK   16  A    between atoms: _38  and  _39
REMARK   17  A    between atoms: _38  and  _41
REMARK   18  A    between atoms: _41  and  _42
REMARK   19  A    between atoms: _45  and  _47
REMARK   20  A    between atoms: _47  and  _48
REMARK   21  A    between atoms: _47  and  _50
REMARK   22  A    between atoms: _50  and  _51
REMARK   23  A    between atoms: _54  and  _56
REMARK   24  A    between atoms: _56  and  _57
REMARK   25  A    between atoms: _59  and  _61
REMARK   26  A    between atoms: _61  and  _62
REMARK   27  A    between atoms: _65  and  _67
REMARK   28  A    between atoms: _67  and  _68
REMARK   29  A    between atoms: _67  and  _70
REMARK   30  A    between atoms: _70  and  _71
REMARK   31  A    between atoms: _74  and  _76
REMARK   32  A    between atoms: _76  and  _77
REMARK   33  A    between atoms: _76  and  _79
REMARK   34  A    between atoms: _79  and  _80
REMARK   35  A    between atoms: _83  and  _85
REMARK   36  A    between atoms: _85  and  _86
REMARK   37  A    between atoms: _85  and  _88
REMARK   38  A    between atoms: _88  and  _89
REMARK   39  A    between atoms: _92  and  _94
REMARK   40  A    between atoms: _94  and  _95
REMARK   41  A    between atoms: _94  and  _97
REMARK   42  A    between atoms: _100  and  _102
REMARK   43  A    between atoms: _102  and  _103
REMARK   44  A    between atoms: _102  and  _105
REMARK   45  A    between atoms: _105  and  _106
REMARK   46  A    between atoms: _106  and  _107
REMARK   47  A    between atoms: _107  and  _108
REMARK   48  A    between atoms: _108  and  _109
REMARK   49  A    between atoms: _113  and  _115
REMARK   50  A    between atoms: _115  and  _116
REMARK   51  A    between atoms: _115  and  _118
REMARK   52  A    between atoms: _118  and  _119
REMARK   53  A    between atoms: _119  and  _120
REMARK   54  A    between atoms: _122  and  _124
REMARK   55  A    between atoms: _124  and  _125
REMARK   56  A    between atoms: _124  and  _127
REMARK   57  A    between atoms: _127  and  _128
REMARK   58  A    between atoms: _131  and  _133
REMARK   59  A    between atoms: _133  and  _134
REMARK   60  A    between atoms: _136  and  _138
REMARK   61  A    between atoms: _138  and  _139
REMARK   62  A    between atoms: _141  and  _143
REMARK   63  A    between atoms: _143  and  _144
REMARK   64  A    between atoms: _143  and  _146
REMARK   65  A    between atoms: _146  and  _147
REMARK   66  A    between atoms: _150  and  _152
REMARK   67  A    between atoms: _152  and  _153
REMARK   68  A    between atoms: _155  and  _157
REMARK   69  A    between atoms: _157  and  _158
REMARK   70  A    between atoms: _160  and  _162
REMARK   71  A    between atoms: _162  and  _163
REMARK   72  A    between atoms: _162  and  _165
REMARK   73  A    between atoms: _165  and  _166
REMARK   74  A    between atoms: _172  and  _174
REMARK   75  A    between atoms: _174  and  _175
REMARK   76  A    between atoms: _174  and  _177
REMARK   77  A    between atoms: _177  and  _178
REMARK   78  A    between atoms: _181  and  _183
REMARK   79  A    between atoms: _183  and  _184
REMARK   80  A    between atoms: _183  and  _186
REMARK   81  A    between atoms: _186  and  _187
REMARK   82  A    between atoms: _191  and  _192
REMARK   83  A    between atoms: _197  and  _199
REMARK   84  A    between atoms: _199  and  _200
REMARK   85  A    between atoms: _199  and  _202
REMARK   86  A    between atoms: _202  and  _203
REMARK   87  A    between atoms: _207  and  _208
REMARK   88  A    between atoms: _213  and  _215
REMARK   89  A    between atoms: _215  and  _216
REMARK   90  A    between atoms: _215  and  _218
REMARK   91  A    between atoms: _221  and  _223
REMARK   92  A    between atoms: _223  and  _224
REMARK   93  A    between atoms: _223  and  _226
REMARK   94  A    between atoms: _226  and  _227
REMARK   95  A    between atoms: _232  and  _234
REMARK   96  A    between atoms: _234  and  _235
REMARK   97  A    between atoms: _234  and  _237
REMARK   98  A    between atoms: _237  and  _238
REMARK   99  A    between atoms: _241  and  _243
REMARK  100  A    between atoms: _243  and  _244
REMARK  101  A    between atoms: _243  and  _246
REMARK  102  A    between atoms: _246  and  _247
REMARK  103  A    between atoms: _250  and  _252
REMARK  104  A    between atoms: _252  and  _253
REMARK  105  A    between atoms: _255  and  _257
REMARK  106  A    between atoms: _257  and  _258
REMARK  107  A    between atoms: _257  and  _260
REMARK  108  A    between atoms: _260  and  _261
REMARK  109  A    between atoms: _261  and  _262
REMARK  110  A    between atoms: _262  and  _263
REMARK  111  A    between atoms: _272  and  _274
REMARK  112  A    between atoms: _274  and  _275
REMARK  113  A    between atoms: _274  and  _277
REMARK  114  A    between atoms: _277  and  _278
REMARK  115  A    between atoms: _283  and  _285
REMARK  116  A    between atoms: _285  and  _286
REMARK  117  A    between atoms: _285  and  _288
REMARK  118  A    between atoms: _288  and  _289
REMARK  119  A    between atoms: _289  and  _290
REMARK  120  A    between atoms: _290  and  _291
REMARK  121  A    between atoms: _300  and  _302
REMARK  122  A    between atoms: _302  and  _303
REMARK  123  A    between atoms: _302  and  _305
REMARK  124  A    between atoms: _305  and  _306
REMARK  125  A    between atoms: _309  and  _311
REMARK  126  A    between atoms: _311  and  _312
REMARK  127  A    between atoms: _311  and  _314
REMARK  128  A    between atoms: _314  and  _315
REMARK  129  A    between atoms: _318  and  _320
REMARK  130  A    between atoms: _320  and  _321
REMARK  131  A    between atoms: _320  and  _323
REMARK  132  A    between atoms: _323  and  _324
REMARK  133  A    between atoms: _327  and  _329
REMARK  134  A    between atoms: _329  and  _330
REMARK  135  A    between atoms: _329  and  _332
REMARK  136  A    between atoms: _332  and  _333
REMARK  137  A    between atoms: _336  and  _338
REMARK  138  A    between atoms: _338  and  _339
REMARK  139  A    between atoms: _341  and  _343
REMARK  140  A    between atoms: _343  and  _344
REMARK  141  A    between atoms: _347  and  _349
REMARK  142  A    between atoms: _349  and  _350
REMARK  143  A    between atoms: _349  and  _352
REMARK  144  A    between atoms: _352  and  _353
REMARK  145  A    between atoms: _356  and  _358
REMARK  146  A    between atoms: _358  and  _359
REMARK  147  A    between atoms: _358  and  _361
REMARK  148  A    between atoms: _361  and  _362
REMARK  149  A    between atoms: _365  and  _367
REMARK  150  A    between atoms: _367  and  _368
REMARK  151  A    between atoms: _367  and  _370
REMARK  152  A    between atoms: _370  and  _371
REMARK  153  A    between atoms: _374  and  _376
REMARK  154  A    between atoms: _376  and  _377
REMARK  155  A    between atoms: _376  and  _379
REMARK  156  A    between atoms: _382  and  _384
REMARK  157  A    between atoms: _384  and  _385
REMARK  158  A    between atoms: _384  and  _387
REMARK  159  A    between atoms: _387  and  _388
REMARK  160  A    between atoms: _391  and  _393
REMARK  161  A    between atoms: _393  and  _394
REMARK  162  A    between atoms: _393  and  _396
REMARK  163  A    between atoms: _396  and  _397
REMARK  164  A    between atoms: _397  and  _398
REMARK  165  A    between atoms: _398  and  _399
REMARK  166  A    between atoms: _399  and  _400
REMARK  167  A    between atoms: _404  and  _406
REMARK  168  A    between atoms: _406  and  _407
REMARK  169  A    between atoms: _406  and  _409
REMARK  170  A    between atoms: _409  and  _410
REMARK  171  A    between atoms: _410  and  _411
REMARK  172  A    between atoms: _413  and  _415
REMARK  173  A    between atoms: _415  and  _416
REMARK  174  A    between atoms: _415  and  _418
REMARK  175  A    between atoms: _418  and  _419
REMARK  176  A    between atoms: _422  and  _424
REMARK  177  A    between atoms: _424  and  _425
REMARK  178  A    between atoms: _427  and  _429
REMARK  179  A    between atoms: _429  and  _430
REMARK  180  A    between atoms: _432  and  _434
REMARK  181  A    between atoms: _434  and  _435
REMARK  182  A    between atoms: _434  and  _437
REMARK  183  A    between atoms: _437  and  _438
REMARK  184  A    between atoms: _441  and  _443
REMARK  185  A    between atoms: _443  and  _444
REMARK  186  A    between atoms: _446  and  _448
REMARK  187  A    between atoms: _448  and  _449
REMARK  188  A    between atoms: _451  and  _453
REMARK  189  A    between atoms: _453  and  _454
REMARK  190  A    between atoms: _453  and  _456
REMARK  191  A    between atoms: _456  and  _457
REMARK  192  A    between atoms: _463  and  _465
REMARK  193  A    between atoms: _465  and  _466
REMARK  194  A    between atoms: _465  and  _468
REMARK  195  A    between atoms: _468  and  _469
REMARK  196  A    between atoms: _472  and  _474
REMARK  197  A    between atoms: _474  and  _475
REMARK  198  A    between atoms: _474  and  _477
REMARK  199  A    between atoms: _480  and  _482
REMARK  200  A    between atoms: _482  and  _483
REMARK  201  A    between atoms: _482  and  _485
REMARK  202  A    between atoms: _485  and  _486
REMARK  203  A    between atoms: _489  and  _491
REMARK  204  A    between atoms: _491  and  _492
REMARK  205  A    between atoms: _491  and  _494
REMARK  206  A    between atoms: _494  and  _495
REMARK  207  A    between atoms: _499  and  _500
REMARK  208  A    between atoms: _505  and  _507
REMARK  209  A    between atoms: _507  and  _508
REMARK  210  A    between atoms: _507  and  _510
REMARK  211  A    between atoms: _513  and  _515
REMARK  212  A    between atoms: _515  and  _516
REMARK  213  A    between atoms: _515  and  _518
REMARK  214  A    between atoms: _518  and  _519
REMARK  215  A    between atoms: _524  and  _526
REMARK  216  A    between atoms: _526  and  _527
REMARK  217  A    between atoms: _526  and  _529
REMARK  218  A    between atoms: _529  and  _530
REMARK  219  A    between atoms: _533  and  _535
REMARK  220  A    between atoms: _535  and  _536
REMARK  221  A    between atoms: _535  and  _538
REMARK  222  A    between atoms: _538  and  _539
REMARK  223  A    between atoms: _542  and  _544
REMARK  224  A    between atoms: _544  and  _545
REMARK  225  A    between atoms: _547  and  _549
REMARK  226  A    between atoms: _549  and  _550
REMARK  227  A    between atoms: _549  and  _552
REMARK  228  A    between atoms: _552  and  _553
REMARK  229  A    between atoms: _553  and  _554
REMARK  230  A    between atoms: _554  and  _555
REMARK  231  A    between atoms: _564  and  _566
REMARK  232  A    between atoms: _566  and  _567
REMARK  233  A    between atoms: _566  and  _569
REMARK  234  A    between atoms: _569  and  _570
REMARK                            x       y       z     vdW  Elec       q    Type
REMARK                         _______ _______ _______ _____ _____    ______ ____
ROOT
ATOM      1  O   HOH     1      20.192  16.102  -3.697  0.00  0.00    +0.000 OA
ENDROOT
TORSDOF 0
REMARK  Name = ../refined-set-2016/4mc2/4mc2_pocket.pdb
REMARK  234 active torsions:
REMARK  status: ('A' for Active; 'I' for Inactive)
REMARK    1  A    between atoms: _1  and  _3
REMARK    2  A    between atoms: _3  and  _4
REMARK    3  A    between atoms: _3  and  _6
REMARK    4  A    between atoms: _6  and  _7
REMARK    5  A    between atoms: _7  and  _8
REMARK    6  A    between atoms: _8  and  _9
REMARK    7  A    between atoms: _18  and  _20
REMARK    8  A    between atoms: _20  and  _21
REMARK    9  A    between atoms: _20  and  _23
REMARK   10  A    between atoms: _23  and  _24
REMARK   11  A    between atoms: _27  and  _29
REMARK   12  A    between atoms: _29  and  _30
REMARK   13  A    between atoms: _29  and  _32
REMARK   14  A    between atoms: _32  and  _33
REMARK   15  A    between atoms: _36  and  _38
REMARK   16  A    between atoms: _38  and  _39
REMARK   17  A    between atoms: _38  and  _41
REMARK   18  A    between atoms: _41  and  _42
REMARK   19  A    between atoms: _45  and  _47
REMARK   20  A    between atoms: _47  and  _48
REMARK   21  A    between atoms: _47  and  _50
REMARK   22  A    between atoms: _50  and  _51
REMARK   23  A    between atoms: _54  and  _56
REMARK   24  A    between atoms: _56  and  _57
REMARK   25  A    between atoms: _59  and  _61
REMARK   26  A    between atoms: _61  and  _62
REMARK   27  A    between atoms: _65  and  _67
REMARK   28  A    between atoms: _67  and  _68
REMARK   29  A    between atoms: _67  and  _70
REMARK   30  A    between atoms: _70  and  _71
REMARK   31  A    between atoms: _74  and  _76
REMARK   32  A    between atoms: _76  and  _77
REMARK   33  A    between atoms: _76  and  _79
REMARK   34  A    between atoms: _79  and  _80
REMARK   35  A    between atoms: _83  and  _85
REMARK   36  A    between atoms: _85  and  _86
REMARK   37  A    between atoms: _85  and  _88
REMARK   38  A    between atoms: _88  and  _89
REMARK   39  A    between atoms: _92  and  _94
REMARK   40  A    between atoms: _94  and  _95
REMARK   41  A    between atoms: _94  and  _97
REMARK   42  A    between atoms: _100  and  _102
REMARK   43  A    between atoms: _102  and  _103
REMARK   44  A    between atoms: _102  and  _105
REMARK   45  A    between atoms: _105  and  _106
REMARK   46  A    between atoms: _106  and  _107
REMARK   47  A    between atoms: _107  and  _108
REMARK   48  A    between atoms: _108  and  _109
REMARK   49  A    between atoms: _113  and  _115
REMARK   50  A    between atoms: _115  and  _116
REMARK   51  A    between atoms: _115  and  _118
REMARK   52  A    between atoms: _118  and  _119
REMARK   53  A    between atoms: _119  and  _120
REMARK   54  A    between atoms: _122  and  _124
REMARK   55  A    between atoms: _124  and  _125
REMARK   56  A    between atoms: _124  and  _127
REMARK   57  A    between atoms: _127  and  _128
REMARK   58  A    between atoms: _131  and  _133
REMARK   59  A    between atoms: _133  and  _134
REMARK   60  A    between atoms: _136  and  _138
REMARK   61  A    between atoms: _138  and  _139
REMARK   62  A    between atoms: _141  and  _143
REMARK   63  A    between atoms: _143  and  _144
REMARK   64  A    between atoms: _143  and  _146
REMARK   65  A    between atoms: _146  and  _147
REMARK   66  A    between atoms: _150  and  _152
REMARK   67  A    between atoms: _152  and  _153
REMARK   68  A    between atoms: _155  and  _157
REMARK   69  A    between atoms: _157  and  _158
REMARK   70  A    between atoms: _160  and  _162
REMARK   71  A    between atoms: _162  and  _163
REMARK   72  A    between atoms: _162  and  _165
REMARK   73  A    between atoms: _165  and  _166
REMARK   74  A    between atoms: _172  and  _174
REMARK   75  A    between atoms: _174  and  _175
REMARK   76  A    between atoms: _174  and  _177
REMARK   77  A    between atoms: _177  and  _178
REMARK   78  A    between atoms: _181  and  _183
REMARK   79  A    between atoms: _183  and  _184
REMARK   80  A    between atoms: _183  and  _186
REMARK   81  A    between atoms: _186  and  _187
REMARK   82  A    between atoms: _191  and  _192
REMARK   83  A    between atoms: _197  and  _199
REMARK   84  A    between atoms: _199  and  _200
REMARK   85  A    between atoms: _199  and  _202
REMARK   86  A    between atoms: _202  and  _203
REMARK   87  A    between atoms: _207  and  _208
REMARK   88  A    between atoms: _213  and  _215
REMARK   89  A    between atoms: _215  and  _216
REMARK   90  A    between atoms: _215  and  _218
REMARK   91  A    between atoms: _221  and  _223
REMARK   92  A    between atoms: _223  and  _224
REMARK   93  A    between atoms: _223  and  _226
REMARK   94  A    between atoms: _226  and  _227
REMARK   95  A    between atoms: _232  and  _234
REMARK   96  A    between atoms: _234  and  _235
REMARK   97  A    between atoms: _234  and  _237
REMARK   98  A    between atoms: _237  and  _238
REMARK   99  A    between atoms: _241  and  _243
REMARK  100  A    between atoms: _243  and  _244
REMARK  101  A    between atoms: _243  and  _246
REMARK  102  A    between atoms: _246  and  _247
REMARK  103  A    between atoms: _250  and  _252
REMARK  104  A    between atoms: _252  and  _253
REMARK  105  A    between atoms: _255  and  _257
REMARK  106  A    between atoms: _257  and  _258
REMARK  107  A    between atoms: _257  and  _260
REMARK  108  A    between atoms: _260  and  _261
REMARK  109  A    between atoms: _261  and  _262
REMARK  110  A    between atoms: _262  and  _263
REMARK  111  A    between atoms: _272  and  _274
REMARK  112  A    between atoms: _274  and  _275
REMARK  113  A    between atoms: _274  and  _277
REMARK  114  A    between atoms: _277  and  _278
REMARK  115  A    between atoms: _283  and  _285
REMARK  116  A    between atoms: _285  and  _286
REMARK  117  A    between atoms: _285  and  _288
REMARK  118  A    between atoms: _288  and  _289
REMARK  119  A    between atoms: _289  and  _290
REMARK  120  A    between atoms: _290  and  _291
REMARK  121  A    between atoms: _300  and  _302
REMARK  122  A    between atoms: _302  and  _303
REMARK  123  A    between atoms: _302  and  _305
REMARK  124  A    between atoms: _305  and  _306
REMARK  125  A    between atoms: _309  and  _311
REMARK  126  A    between atoms: _311  and  _312
REMARK  127  A    between atoms: _311  and  _314
REMARK  128  A    between atoms: _314  and  _315
REMARK  129  A    between atoms: _318  and  _320
REMARK  130  A    between atoms: _320  and  _321
REMARK  131  A    between atoms: _320  and  _323
REMARK  132  A    between atoms: _323  and  _324
REMARK  133  A    between atoms: _327  and  _329
REMARK  134  A    between atoms: _329  and  _330
REMARK  135  A    between atoms: _329  and  _332
REMARK  136  A    between atoms: _332  and  _333
REMARK  137  A    between atoms: _336  and  _338
REMARK  138  A    between atoms: _338  and  _339
REMARK  139  A    between atoms: _341  and  _343
REMARK  140  A    between atoms: _343  and  _344
REMARK  141  A    between atoms: _347  and  _349
REMARK  142  A    between atoms: _349  and  _350
REMARK  143  A    between atoms: _349  and  _352
REMARK  144  A    between atoms: _352  and  _353
REMARK  145  A    between atoms: _356  and  _358
REMARK  146  A    between atoms: _358  and  _359
REMARK  147  A    between atoms: _358  and  _361
REMARK  148  A    between atoms: _361  and  _362
REMARK  149  A    between atoms: _365  and  _367
REMARK  150  A    between atoms: _367  and  _368
REMARK  151  A    between atoms: _367  and  _370
REMARK  152  A    between atoms: _370  and  _371
REMARK  153  A    between atoms: _374  and  _376
REMARK  154  A    between atoms: _376  and  _377
REMARK  155  A    between atoms: _376  and  _379
REMARK  156  A    between atoms: _382  and  _384
REMARK  157  A    between atoms: _384  and  _385
REMARK  158  A    between atoms: _384  and  _387
REMARK  159  A    between atoms: _387  and  _388
REMARK  160  A    between atoms: _391  and  _393
REMARK  161  A    between atoms: _393  and  _394
REMARK  162  A    between atoms: _393  and  _396
REMARK  163  A    between atoms: _396  and  _397
REMARK  164  A    between atoms: _397  and  _398
REMARK  165  A    between atoms: _398  and  _399
REMARK  166  A    between atoms: _399  and  _400
REMARK  167  A    between atoms: _404  and  _406
REMARK  168  A    between atoms: _406  and  _407
REMARK  169  A    between atoms: _406  and  _409
REMARK  170  A    between atoms: _409  and  _410
REMARK  171  A    between atoms: _410  and  _411
REMARK  172  A    between atoms: _413  and  _415
REMARK  173  A    between atoms: _415  and  _416
REMARK  174  A    between atoms: _415  and  _418
REMARK  175  A    between atoms: _418  and  _419
REMARK  176  A    between atoms: _422  and  _424
REMARK  177  A    between atoms: _424  and  _425
REMARK  178  A    between atoms: _427  and  _429
REMARK  179  A    between atoms: _429  and  _430
REMARK  180  A    between atoms: _432  and  _434
REMARK  181  A    between atoms: _434  and  _435
REMARK  182  A    between atoms: _434  and  _437
REMARK  183  A    between atoms: _437  and  _438
REMARK  184  A    between atoms: _441  and  _443
REMARK  185  A    between atoms: _443  and  _444
REMARK  186  A    between atoms: _446  and  _448
REMARK  187  A    between atoms: _448  and  _449
REMARK  188  A    between atoms: _451  and  _453
REMARK  189  A    between atoms: _453  and  _454
REMARK  190  A    between atoms: _453  and  _456
REMARK  191  A    between atoms: _456  and  _457
REMARK  192  A    between atoms: _463  and  _465
REMARK  193  A    between atoms: _465  and  _466
REMARK  194  A    between atoms: _465  and  _468
REMARK  195  A    between atoms: _468  and  _469
REMARK  196  A    between atoms: _472  and  _474
REMARK  197  A    between atoms: _474  and  _475
REMARK  198  A    between atoms: _474  and  _477
REMARK  199  A    between atoms: _480  and  _482
REMARK  200  A    between atoms: _482  and  _483
REMARK  201  A    between atoms: _482  and  _485
REMARK  202  A    between atoms: _485  and  _486
REMARK  203  A    between atoms: _489  and  _491
REMARK  204  A    between atoms: _491  and  _492
REMARK  205  A    between atoms: _491  and  _494
REMARK  206  A    between atoms: _494  and  _495
REMARK  207  A    between atoms: _499  and  _500
REMARK  208  A    between atoms: _505  and  _507
REMARK  209  A    between atoms: _507  and  _508
REMARK  210  A    between atoms: _507  and  _510
REMARK  211  A    between atoms: _513  and  _515
REMARK  212  A    between atoms: _515  and  _516
REMARK  213  A    between atoms: _515  and  _518
REMARK  214  A    between atoms: _518  and  _519
REMARK  215  A    between atoms: _524  and  _526
REMARK  216  A    between atoms: _526  and  _527
REMARK  217  A    between atoms: _526  and  _529
REMARK  218  A    between atoms: _529  and  _530
REMARK  219  A    between atoms: _533  and  _535
REMARK  220  A    between atoms: _535  and  _536
REMARK  221  A    between atoms: _535  and  _538
REMARK  222  A    between atoms: _538  and  _539
REMARK  223  A    between atoms: _542  and  _544
REMARK  224  A    between atoms: _544  and  _545
REMARK  225  A    between atoms: _547  and  _549
REMARK  226  A    between atoms: _549  and  _550
REMARK  227  A    between atoms: _549  and  _552
REMARK  228  A    between atoms: _552  and  _553
REMARK  229  A    between atoms: _553  and  _554
REMARK  230  A    between atoms: _554  and  _555
REMARK  231  A    between atoms: _564  and  _566
REMARK  232  A    between atoms: _566  and  _567
REMARK  233  A    between atoms: _566  and  _569
REMARK  234  A    between atoms: _569  and  _570
REMARK                            x       y       z     vdW  Elec       q    Type
REMARK                         _______ _______ _______ _____ _____    ______ ____
ROOT
ATOM      1  O   HOH     1       9.143  28.709   1.826  0.00  0.00    +0.000 OA
ENDROOT
TORSDOF 0
REMARK  Name = ../refined-set-2016/4mc2/4mc2_pocket.pdb
REMARK  234 active torsions:
REMARK  status: ('A' for Active; 'I' for Inactive)
REMARK    1  A    between atoms: _1  and  _3
REMARK    2  A    between atoms: _3  and  _4
REMARK    3  A    between atoms: _3  and  _6
REMARK    4  A    between atoms: _6  and  _7
REMARK    5  A    between atoms: _7  and  _8
REMARK    6  A    between atoms: _8  and  _9
REMARK    7  A    between atoms: _18  and  _20
REMARK    8  A    between atoms: _20  and  _21
REMARK    9  A    between atoms: _20  and  _23
REMARK   10  A    between atoms: _23  and  _24
REMARK   11  A    between atoms: _27  and  _29
REMARK   12  A    between atoms: _29  and  _30
REMARK   13  A    between atoms: _29  and  _32
REMARK   14  A    between atoms: _32  and  _33
REMARK   15  A    between atoms: _36  and  _38
REMARK   16  A    between atoms: _38  and  _39
REMARK   17  A    between atoms: _38  and  _41
REMARK   18  A    between atoms: _41  and  _42
REMARK   19  A    between atoms: _45  and  _47
REMARK   20  A    between atoms: _47  and  _48
REMARK   21  A    between atoms: _47  and  _50
REMARK   22  A    between atoms: _50  and  _51
REMARK   23  A    between atoms: _54  and  _56
REMARK   24  A    between atoms: _56  and  _57
REMARK   25  A    between atoms: _59  and  _61
REMARK   26  A    between atoms: _61  and  _62
REMARK   27  A    between atoms: _65  and  _67
REMARK   28  A    between atoms: _67  and  _68
REMARK   29  A    between atoms: _67  and  _70
REMARK   30  A    between atoms: _70  and  _71
REMARK   31  A    between atoms: _74  and  _76
REMARK   32  A    between atoms: _76  and  _77
REMARK   33  A    between atoms: _76  and  _79
REMARK   34  A    between atoms: _79  and  _80
REMARK   35  A    between atoms: _83  and  _85
REMARK   36  A    between atoms: _85  and  _86
REMARK   37  A    between atoms: _85  and  _88
REMARK   38  A    between atoms: _88  and  _89
REMARK   39  A    between atoms: _92  and  _94
REMARK   40  A    between atoms: _94  and  _95
REMARK   41  A    between atoms: _94  and  _97
REMARK   42  A    between atoms: _100  and  _102
REMARK   43  A    between atoms: _102  and  _103
REMARK   44  A    between atoms: _102  and  _105
REMARK   45  A    between atoms: _105  and  _106
REMARK   46  A    between atoms: _106  and  _107
REMARK   47  A    between atoms: _107  and  _108
REMARK   48  A    between atoms: _108  and  _109
REMARK   49  A    between atoms: _113  and  _115
REMARK   50  A    between atoms: _115  and  _116
REMARK   51  A    between atoms: _115  and  _118
REMARK   52  A    between atoms: _118  and  _119
REMARK   53  A    between atoms: _119  and  _120
REMARK   54  A    between atoms: _122  and  _124
REMARK   55  A    between atoms: _124  and  _125
REMARK   56  A    between atoms: _124  and  _127
REMARK   57  A    between atoms: _127  and  _128
REMARK   58  A    between atoms: _131  and  _133
REMARK   59  A    between atoms: _133  and  _134
REMARK   60  A    between atoms: _136  and  _138
REMARK   61  A    between atoms: _138  and  _139
REMARK   62  A    between atoms: _141  and  _143
REMARK   63  A    between atoms: _143  and  _144
REMARK   64  A    between atoms: _143  and  _146
REMARK   65  A    between atoms: _146  and  _147
REMARK   66  A    between atoms: _150  and  _152
REMARK   67  A    between atoms: _152  and  _153
REMARK   68  A    between atoms: _155  and  _157
REMARK   69  A    between atoms: _157  and  _158
REMARK   70  A    between atoms: _160  and  _162
REMARK   71  A    between atoms: _162  and  _163
REMARK   72  A    between atoms: _162  and  _165
REMARK   73  A    between atoms: _165  and  _166
REMARK   74  A    between atoms: _172  and  _174
REMARK   75  A    between atoms: _174  and  _175
REMARK   76  A    between atoms: _174  and  _177
REMARK   77  A    between atoms: _177  and  _178
REMARK   78  A    between atoms: _181  and  _183
REMARK   79  A    between atoms: _183  and  _184
REMARK   80  A    between atoms: _183  and  _186
REMARK   81  A    between atoms: _186  and  _187
REMARK   82  A    between atoms: _191  and  _192
REMARK   83  A    between atoms: _197  and  _199
REMARK   84  A    between atoms: _199  and  _200
REMARK   85  A    between atoms: _199  and  _202
REMARK   86  A    between atoms: _202  and  _203
REMARK   87  A    between atoms: _207  and  _208
REMARK   88  A    between atoms: _213  and  _215
REMARK   89  A    between atoms: _215  and  _216
REMARK   90  A    between atoms: _215  and  _218
REMARK   91  A    between atoms: _221  and  _223
REMARK   92  A    between atoms: _223  and  _224
REMARK   93  A    between atoms: _223  and  _226
REMARK   94  A    between atoms: _226  and  _227
REMARK   95  A    between atoms: _232  and  _234
REMARK   96  A    between atoms: _234  and  _235
REMARK   97  A    between atoms: _234  and  _237
REMARK   98  A    between atoms: _237  and  _238
REMARK   99  A    between atoms: _241  and  _243
REMARK  100  A    between atoms: _243  and  _244
REMARK  101  A    between atoms: _243  and  _246
REMARK  102  A    between atoms: _246  and  _247
REMARK  103  A    between atoms: _250  and  _252
REMARK  104  A    between atoms: _252  and  _253
REMARK  105  A    between atoms: _255  and  _257
REMARK  106  A    between atoms: _257  and  _258
REMARK  107  A    between atoms: _257  and  _260
REMARK  108  A    between atoms: _260  and  _261
REMARK  109  A    between atoms: _261  and  _262
REMARK  110  A    between atoms: _262  and  _263
REMARK  111  A    between atoms: _272  and  _274
REMARK  112  A    between atoms: _274  and  _275
REMARK  113  A    between atoms: _274  and  _277
REMARK  114  A    between atoms: _277  and  _278
REMARK  115  A    between atoms: _283  and  _285
REMARK  116  A    between atoms: _285  and  _286
REMARK  117  A    between atoms: _285  and  _288
REMARK  118  A    between atoms: _288  and  _289
REMARK  119  A    between atoms: _289  and  _290
REMARK  120  A    between atoms: _290  and  _291
REMARK  121  A    between atoms: _300  and  _302
REMARK  122  A    between atoms: _302  and  _303
REMARK  123  A    between atoms: _302  and  _305
REMARK  124  A    between atoms: _305  and  _306
REMARK  125  A    between atoms: _309  and  _311
REMARK  126  A    between atoms: _311  and  _312
REMARK  127  A    between atoms: _311  and  _314
REMARK  128  A    between atoms: _314  and  _315
REMARK  129  A    between atoms: _318  and  _320
REMARK  130  A    between atoms: _320  and  _321
REMARK  131  A    between atoms: _320  and  _323
REMARK  132  A    between atoms: _323  and  _324
REMARK  133  A    between atoms: _327  and  _329
REMARK  134  A    between atoms: _329  and  _330
REMARK  135  A    between atoms: _329  and  _332
REMARK  136  A    between atoms: _332  and  _333
REMARK  137  A    between atoms: _336  and  _338
REMARK  138  A    between atoms: _338  and  _339
REMARK  139  A    between atoms: _341  and  _343
REMARK  140  A    between atoms: _343  and  _344
REMARK  141  A    between atoms: _347  and  _349
REMARK  142  A    between atoms: _349  and  _350
REMARK  143  A    between atoms: _349  and  _352
REMARK  144  A    between atoms: _352  and  _353
REMARK  145  A    between atoms: _356  and  _358
REMARK  146  A    between atoms: _358  and  _359
REMARK  147  A    between atoms: _358  and  _361
REMARK  148  A    between atoms: _361  and  _362
REMARK  149  A    between atoms: _365  and  _367
REMARK  150  A    between atoms: _367  and  _368
REMARK  151  A    between atoms: _367  and  _370
REMARK  152  A    between atoms: _370  and  _371
REMARK  153  A    between atoms: _374  and  _376
REMARK  154  A    between atoms: _376  and  _377
REMARK  155  A    between atoms: _376  and  _379
REMARK  156  A    between atoms: _382  and  _384
REMARK  157  A    between atoms: _384  and  _385
REMARK  158  A    between atoms: _384  and  _387
REMARK  159  A    between atoms: _387  and  _388
REMARK  160  A    between atoms: _391  and  _393
REMARK  161  A    between atoms: _393  and  _394
REMARK  162  A    between atoms: _393  and  _396
REMARK  163  A    between atoms: _396  and  _397
REMARK  164  A    between atoms: _397  and  _398
REMARK  165  A    between atoms: _398  and  _399
REMARK  166  A    between atoms: _399  and  _400
REMARK  167  A    between atoms: _404  and  _406
REMARK  168  A    between atoms: _406  and  _407
REMARK  169  A    between atoms: _406  and  _409
REMARK  170  A    between atoms: _409  and  _410
REMARK  171  A    between atoms: _410  and  _411
REMARK  172  A    between atoms: _413  and  _415
REMARK  173  A    between atoms: _415  and  _416
REMARK  174  A    between atoms: _415  and  _418
REMARK  175  A    between atoms: _418  and  _419
REMARK  176  A    between atoms: _422  and  _424
REMARK  177  A    between atoms: _424  and  _425
REMARK  178  A    between atoms: _427  and  _429
REMARK  179  A    between atoms: _429  and  _430
REMARK  180  A    between atoms: _432  and  _434
REMARK  181  A    between atoms: _434  and  _435
REMARK  182  A    between atoms: _434  and  _437
REMARK  183  A    between atoms: _437  and  _438
REMARK  184  A    between atoms: _441  and  _443
REMARK  185  A    between atoms: _443  and  _444
REMARK  186  A    between atoms: _446  and  _448
REMARK  187  A    between atoms: _448  and  _449
REMARK  188  A    between atoms: _451  and  _453
REMARK  189  A    between atoms: _453  and  _454
REMARK  190  A    between atoms: _453  and  _456
REMARK  191  A    between atoms: _456  and  _457
REMARK  192  A    between atoms: _463  and  _465
REMARK  193  A    between atoms: _465  and  _466
REMARK  194  A    between atoms: _465  and  _468
REMARK  195  A    between atoms: _468  and  _469
REMARK  196  A    between atoms: _472  and  _474
REMARK  197  A    between atoms: _474  and  _475
REMARK  198  A    between atoms: _474  and  _477
REMARK  199  A    between atoms: _480  and  _482
REMARK  200  A    between atoms: _482  and  _483
REMARK  201  A    between atoms: _482  and  _485
REMARK  202  A    between atoms: _485  and  _486
REMARK  203  A    between atoms: _489  and  _491
REMARK  204  A    between atoms: _491  and  _492
REMARK  205  A    between atoms: _491  and  _494
REMARK  206  A    between atoms: _494  and  _495
REMARK  207  A    between atoms: _499  and  _500
REMARK  208  A    between atoms: _505  and  _507
REMARK  209  A    between atoms: _507  and  _508
REMARK  210  A    between atoms: _507  and  _510
REMARK  211  A    between atoms: _513  and  _515
REMARK  212  A    between atoms: _515  and  _516
REMARK  213  A    between atoms: _515  and  _518
REMARK  214  A    between atoms: _518  and  _519
REMARK  215  A    between atoms: _524  and  _526
REMARK  216  A    between atoms: _526  and  _527
REMARK  217  A    between atoms: _526  and  _529
REMARK  218  A    between atoms: _529  and  _530
REMARK  219  A    between atoms: _533  and  _535
REMARK  220  A    between atoms: _535  and  _536
REMARK  221  A    between atoms: _535  and  _538
REMARK  222  A    between atoms: _538  and  _539
REMARK  223  A    between atoms: _542  and  _544
REMARK  224  A    between atoms: _544  and  _545
REMARK  225  A    between atoms: _547  and  _549
REMARK  226  A    between atoms: _549  and  _550
REMARK  227  A    between atoms: _549  and  _552
REMARK  228  A    between atoms: _552  and  _553
REMARK  229  A    between atoms: _553  and  _554
REMARK  230  A    between atoms: _554  and  _555
REMARK  231  A    between atoms: _564  and  _566
REMARK  232  A    between atoms: _566  and  _567
REMARK  233  A    between atoms: _566  and  _569
REMARK  234  A    between atoms: _569  and  _570
REMARK                            x       y       z     vdW  Elec       q    Type
REMARK                         _______ _______ _______ _____ _____    ______ ____
ROOT
ATOM      1  O   HOH     1      20.546  22.271   6.578  0.00  0.00    +0.000 OA
ENDROOT
TORSDOF 0
REMARK  Name = ../refined-set-2016/4mc2/4mc2_pocket.pdb
REMARK  234 active torsions:
REMARK  status: ('A' for Active; 'I' for Inactive)
REMARK    1  A    between atoms: _1  and  _3
REMARK    2  A    between atoms: _3  and  _4
REMARK    3  A    between atoms: _3  and  _6
REMARK    4  A    between atoms: _6  and  _7
REMARK    5  A    between atoms: _7  and  _8
REMARK    6  A    between atoms: _8  and  _9
REMARK    7  A    between atoms: _18  and  _20
REMARK    8  A    between atoms: _20  and  _21
REMARK    9  A    between atoms: _20  and  _23
REMARK   10  A    between atoms: _23  and  _24
REMARK   11  A    between atoms: _27  and  _29
REMARK   12  A    between atoms: _29  and  _30
REMARK   13  A    between atoms: _29  and  _32
REMARK   14  A    between atoms: _32  and  _33
REMARK   15  A    between atoms: _36  and  _38
REMARK   16  A    between atoms: _38  and  _39
REMARK   17  A    between atoms: _38  and  _41
REMARK   18  A    between atoms: _41  and  _42
REMARK   19  A    between atoms: _45  and  _47
REMARK   20  A    between atoms: _47  and  _48
REMARK   21  A    between atoms: _47  and  _50
REMARK   22  A    between atoms: _50  and  _51
REMARK   23  A    between atoms: _54  and  _56
REMARK   24  A    between atoms: _56  and  _57
REMARK   25  A    between atoms: _59  and  _61
REMARK   26  A    between atoms: _61  and  _62
REMARK   27  A    between atoms: _65  and  _67
REMARK   28  A    between atoms: _67  and  _68
REMARK   29  A    between atoms: _67  and  _70
REMARK   30  A    between atoms: _70  and  _71
REMARK   31  A    between atoms: _74  and  _76
REMARK   32  A    between atoms: _76  and  _77
REMARK   33  A    between atoms: _76  and  _79
REMARK   34  A    between atoms: _79  and  _80
REMARK   35  A    between atoms: _83  and  _85
REMARK   36  A    between atoms: _85  and  _86
REMARK   37  A    between atoms: _85  and  _88
REMARK   38  A    between atoms: _88  and  _89
REMARK   39  A    between atoms: _92  and  _94
REMARK   40  A    between atoms: _94  and  _95
REMARK   41  A    between atoms: _94  and  _97
REMARK   42  A    between atoms: _100  and  _102
REMARK   43  A    between atoms: _102  and  _103
REMARK   44  A    between atoms: _102  and  _105
REMARK   45  A    between atoms: _105  and  _106
REMARK   46  A    between atoms: _106  and  _107
REMARK   47  A    between atoms: _107  and  _108
REMARK   48  A    between atoms: _108  and  _109
REMARK   49  A    between atoms: _113  and  _115
REMARK   50  A    between atoms: _115  and  _116
REMARK   51  A    between atoms: _115  and  _118
REMARK   52  A    between atoms: _118  and  _119
REMARK   53  A    between atoms: _119  and  _120
REMARK   54  A    between atoms: _122  and  _124
REMARK   55  A    between atoms: _124  and  _125
REMARK   56  A    between atoms: _124  and  _127
REMARK   57  A    between atoms: _127  and  _128
REMARK   58  A    between atoms: _131  and  _133
REMARK   59  A    between atoms: _133  and  _134
REMARK   60  A    between atoms: _136  and  _138
REMARK   61  A    between atoms: _138  and  _139
REMARK   62  A    between atoms: _141  and  _143
REMARK   63  A    between atoms: _143  and  _144
REMARK   64  A    between atoms: _143  and  _146
REMARK   65  A    between atoms: _146  and  _147
REMARK   66  A    between atoms: _150  and  _152
REMARK   67  A    between atoms: _152  and  _153
REMARK   68  A    between atoms: _155  and  _157
REMARK   69  A    between atoms: _157  and  _158
REMARK   70  A    between atoms: _160  and  _162
REMARK   71  A    between atoms: _162  and  _163
REMARK   72  A    between atoms: _162  and  _165
REMARK   73  A    between atoms: _165  and  _166
REMARK   74  A    between atoms: _172  and  _174
REMARK   75  A    between atoms: _174  and  _175
REMARK   76  A    between atoms: _174  and  _177
REMARK   77  A    between atoms: _177  and  _178
REMARK   78  A    between atoms: _181  and  _183
REMARK   79  A    between atoms: _183  and  _184
REMARK   80  A    between atoms: _183  and  _186
REMARK   81  A    between atoms: _186  and  _187
REMARK   82  A    between atoms: _191  and  _192
REMARK   83  A    between atoms: _197  and  _199
REMARK   84  A    between atoms: _199  and  _200
REMARK   85  A    between atoms: _199  and  _202
REMARK   86  A    between atoms: _202  and  _203
REMARK   87  A    between atoms: _207  and  _208
REMARK   88  A    between atoms: _213  and  _215
REMARK   89  A    between atoms: _215  and  _216
REMARK   90  A    between atoms: _215  and  _218
REMARK   91  A    between atoms: _221  and  _223
REMARK   92  A    between atoms: _223  and  _224
REMARK   93  A    between atoms: _223  and  _226
REMARK   94  A    between atoms: _226  and  _227
REMARK   95  A    between atoms: _232  and  _234
REMARK   96  A    between atoms: _234  and  _235
REMARK   97  A    between atoms: _234  and  _237
REMARK   98  A    between atoms: _237  and  _238
REMARK   99  A    between atoms: _241  and  _243
REMARK  100  A    between atoms: _243  and  _244
REMARK  101  A    between atoms: _243  and  _246
REMARK  102  A    between atoms: _246  and  _247
REMARK  103  A    between atoms: _250  and  _252
REMARK  104  A    between atoms: _252  and  _253
REMARK  105  A    between atoms: _255  and  _257
REMARK  106  A    between atoms: _257  and  _258
REMARK  107  A    between atoms: _257  and  _260
REMARK  108  A    between atoms: _260  and  _261
REMARK  109  A    between atoms: _261  and  _262
REMARK  110  A    between atoms: _262  and  _263
REMARK  111  A    between atoms: _272  and  _274
REMARK  112  A    between atoms: _274  and  _275
REMARK  113  A    between atoms: _274  and  _277
REMARK  114  A    between atoms: _277  and  _278
REMARK  115  A    between atoms: _283  and  _285
REMARK  116  A    between atoms: _285  and  _286
REMARK  117  A    between atoms: _285  and  _288
REMARK  118  A    between atoms: _288  and  _289
REMARK  119  A    between atoms: _289  and  _290
REMARK  120  A    between atoms: _290  and  _291
REMARK  121  A    between atoms: _300  and  _302
REMARK  122  A    between atoms: _302  and  _303
REMARK  123  A    between atoms: _302  and  _305
REMARK  124  A    between atoms: _305  and  _306
REMARK  125  A    between atoms: _309  and  _311
REMARK  126  A    between atoms: _311  and  _312
REMARK  127  A    between atoms: _311  and  _314
REMARK  128  A    between atoms: _314  and  _315
REMARK  129  A    between atoms: _318  and  _320
REMARK  130  A    between atoms: _320  and  _321
REMARK  131  A    between atoms: _320  and  _323
REMARK  132  A    between atoms: _323  and  _324
REMARK  133  A    between atoms: _327  and  _329
REMARK  134  A    between atoms: _329  and  _330
REMARK  135  A    between atoms: _329  and  _332
REMARK  136  A    between atoms: _332  and  _333
REMARK  137  A    between atoms: _336  and  _338
REMARK  138  A    between atoms: _338  and  _339
REMARK  139  A    between atoms: _341  and  _343
REMARK  140  A    between atoms: _343  and  _344
REMARK  141  A    between atoms: _347  and  _349
REMARK  142  A    between atoms: _349  and  _350
REMARK  143  A    between atoms: _349  and  _352
REMARK  144  A    between atoms: _352  and  _353
REMARK  145  A    between atoms: _356  and  _358
REMARK  146  A    between atoms: _358  and  _359
REMARK  147  A    between atoms: _358  and  _361
REMARK  148  A    between atoms: _361  and  _362
REMARK  149  A    between atoms: _365  and  _367
REMARK  150  A    between atoms: _367  and  _368
REMARK  151  A    between atoms: _367  and  _370
REMARK  152  A    between atoms: _370  and  _371
REMARK  153  A    between atoms: _374  and  _376
REMARK  154  A    between atoms: _376  and  _377
REMARK  155  A    between atoms: _376  and  _379
REMARK  156  A    between atoms: _382  and  _384
REMARK  157  A    between atoms: _384  and  _385
REMARK  158  A    between atoms: _384  and  _387
REMARK  159  A    between atoms: _387  and  _388
REMARK  160  A    between atoms: _391  and  _393
REMARK  161  A    between atoms: _393  and  _394
REMARK  162  A    between atoms: _393  and  _396
REMARK  163  A    between atoms: _396  and  _397
REMARK  164  A    between atoms: _397  and  _398
REMARK  165  A    between atoms: _398  and  _399
REMARK  166  A    between atoms: _399  and  _400
REMARK  167  A    between atoms: _404  and  _406
REMARK  168  A    between atoms: _406  and  _407
REMARK  169  A    between atoms: _406  and  _409
REMARK  170  A    between atoms: _409  and  _410
REMARK  171  A    between atoms: _410  and  _411
REMARK  172  A    between atoms: _413  and  _415
REMARK  173  A    between atoms: _415  and  _416
REMARK  174  A    between atoms: _415  and  _418
REMARK  175  A    between atoms: _418  and  _419
REMARK  176  A    between atoms: _422  and  _424
REMARK  177  A    between atoms: _424  and  _425
REMARK  178  A    between atoms: _427  and  _429
REMARK  179  A    between atoms: _429  and  _430
REMARK  180  A    between atoms: _432  and  _434
REMARK  181  A    between atoms: _434  and  _435
REMARK  182  A    between atoms: _434  and  _437
REMARK  183  A    between atoms: _437  and  _438
REMARK  184  A    between atoms: _441  and  _443
REMARK  185  A    between atoms: _443  and  _444
REMARK  186  A    between atoms: _446  and  _448
REMARK  187  A    between atoms: _448  and  _449
REMARK  188  A    between atoms: _451  and  _453
REMARK  189  A    between atoms: _453  and  _454
REMARK  190  A    between atoms: _453  and  _456
REMARK  191  A    between atoms: _456  and  _457
REMARK  192  A    between atoms: _463  and  _465
REMARK  193  A    between atoms: _465  and  _466
REMARK  194  A    between atoms: _465  and  _468
REMARK  195  A    between atoms: _468  and  _469
REMARK  196  A    between atoms: _472  and  _474
REMARK  197  A    between atoms: _474  and  _475
REMARK  198  A    between atoms: _474  and  _477
REMARK  199  A    between atoms: _480  and  _482
REMARK  200  A    between atoms: _482  and  _483
REMARK  201  A    between atoms: _482  and  _485
REMARK  202  A    between atoms: _485  and  _486
REMARK  203  A    between atoms: _489  and  _491
REMARK  204  A    between atoms: _491  and  _492
REMARK  205  A    between atoms: _491  and  _494
REMARK  206  A    between atoms: _494  and  _495
REMARK  207  A    between atoms: _499  and  _500
REMARK  208  A    between atoms: _505  and  _507
REMARK  209  A    between atoms: _507  and  _508
REMARK  210  A    between atoms: _507  and  _510
REMARK  211  A    between atoms: _513  and  _515
REMARK  212  A    between atoms: _515  and  _516
REMARK  213  A    between atoms: _515  and  _518
REMARK  214  A    between atoms: _518  and  _519
REMARK  215  A    between atoms: _524  and  _526
REMARK  216  A    between atoms: _526  and  _527
REMARK  217  A    between atoms: _526  and  _529
REMARK  218  A    between atoms: _529  and  _530
REMARK  219  A    between atoms: _533  and  _535
REMARK  220  A    between atoms: _535  and  _536
REMARK  221  A    between atoms: _535  and  _538
REMARK  222  A    between atoms: _538  and  _539
REMARK  223  A    between atoms: _542  and  _544
REMARK  224  A    between atoms: _544  and  _545
REMARK  225  A    between atoms: _547  and  _549
REMARK  226  A    between atoms: _549  and  _550
REMARK  227  A    between atoms: _549  and  _552
REMARK  228  A    between atoms: _552  and  _553
REMARK  229  A    between atoms: _553  and  _554
REMARK  230  A    between atoms: _554  and  _555
REMARK  231  A    between atoms: _564  and  _566
REMARK  232  A    between atoms: _566  and  _567
REMARK  233  A    between atoms: _566  and  _569
REMARK  234  A    between atoms: _569  and  _570
REMARK                            x       y       z     vdW  Elec       q    Type
REMARK                         _______ _______ _______ _____ _____    ______ ____
ROOT
ATOM      1  O   HOH     1       5.776  27.878  -3.136  0.00  0.00    +0.000 OA
ENDROOT
TORSDOF 0
REMARK  Name = ../refined-set-2016/4mc2/4mc2_pocket.pdb
REMARK  234 active torsions:
REMARK  status: ('A' for Active; 'I' for Inactive)
REMARK    1  A    between atoms: _1  and  _3
REMARK    2  A    between atoms: _3  and  _4
REMARK    3  A    between atoms: _3  and  _6
REMARK    4  A    between atoms: _6  and  _7
REMARK    5  A    between atoms: _7  and  _8
REMARK    6  A    between atoms: _8  and  _9
REMARK    7  A    between atoms: _18  and  _20
REMARK    8  A    between atoms: _20  and  _21
REMARK    9  A    between atoms: _20  and  _23
REMARK   10  A    between atoms: _23  and  _24
REMARK   11  A    between atoms: _27  and  _29
REMARK   12  A    between atoms: _29  and  _30
REMARK   13  A    between atoms: _29  and  _32
REMARK   14  A    between atoms: _32  and  _33
REMARK   15  A    between atoms: _36  and  _38
REMARK   16  A    between atoms: _38  and  _39
REMARK   17  A    between atoms: _38  and  _41
REMARK   18  A    between atoms: _41  and  _42
REMARK   19  A    between atoms: _45  and  _47
REMARK   20  A    between atoms: _47  and  _48
REMARK   21  A    between atoms: _47  and  _50
REMARK   22  A    between atoms: _50  and  _51
REMARK   23  A    between atoms: _54  and  _56
REMARK   24  A    between atoms: _56  and  _57
REMARK   25  A    between atoms: _59  and  _61
REMARK   26  A    between atoms: _61  and  _62
REMARK   27  A    between atoms: _65  and  _67
REMARK   28  A    between atoms: _67  and  _68
REMARK   29  A    between atoms: _67  and  _70
REMARK   30  A    between atoms: _70  and  _71
REMARK   31  A    between atoms: _74  and  _76
REMARK   32  A    between atoms: _76  and  _77
REMARK   33  A    between atoms: _76  and  _79
REMARK   34  A    between atoms: _79  and  _80
REMARK   35  A    between atoms: _83  and  _85
REMARK   36  A    between atoms: _85  and  _86
REMARK   37  A    between atoms: _85  and  _88
REMARK   38  A    between atoms: _88  and  _89
REMARK   39  A    between atoms: _92  and  _94
REMARK   40  A    between atoms: _94  and  _95
REMARK   41  A    between atoms: _94  and  _97
REMARK   42  A    between atoms: _100  and  _102
REMARK   43  A    between atoms: _102  and  _103
REMARK   44  A    between atoms: _102  and  _105
REMARK   45  A    between atoms: _105  and  _106
REMARK   46  A    between atoms: _106  and  _107
REMARK   47  A    between atoms: _107  and  _108
REMARK   48  A    between atoms: _108  and  _109
REMARK   49  A    between atoms: _113  and  _115
REMARK   50  A    between atoms: _115  and  _116
REMARK   51  A    between atoms: _115  and  _118
REMARK   52  A    between atoms: _118  and  _119
REMARK   53  A    between atoms: _119  and  _120
REMARK   54  A    between atoms: _122  and  _124
REMARK   55  A    between atoms: _124  and  _125
REMARK   56  A    between atoms: _124  and  _127
REMARK   57  A    between atoms: _127  and  _128
REMARK   58  A    between atoms: _131  and  _133
REMARK   59  A    between atoms: _133  and  _134
REMARK   60  A    between atoms: _136  and  _138
REMARK   61  A    between atoms: _138  and  _139
REMARK   62  A    between atoms: _141  and  _143
REMARK   63  A    between atoms: _143  and  _144
REMARK   64  A    between atoms: _143  and  _146
REMARK   65  A    between atoms: _146  and  _147
REMARK   66  A    between atoms: _150  and  _152
REMARK   67  A    between atoms: _152  and  _153
REMARK   68  A    between atoms: _155  and  _157
REMARK   69  A    between atoms: _157  and  _158
REMARK   70  A    between atoms: _160  and  _162
REMARK   71  A    between atoms: _162  and  _163
REMARK   72  A    between atoms: _162  and  _165
REMARK   73  A    between atoms: _165  and  _166
REMARK   74  A    between atoms: _172  and  _174
REMARK   75  A    between atoms: _174  and  _175
REMARK   76  A    between atoms: _174  and  _177
REMARK   77  A    between atoms: _177  and  _178
REMARK   78  A    between atoms: _181  and  _183
REMARK   79  A    between atoms: _183  and  _184
REMARK   80  A    between atoms: _183  and  _186
REMARK   81  A    between atoms: _186  and  _187
REMARK   82  A    between atoms: _191  and  _192
REMARK   83  A    between atoms: _197  and  _199
REMARK   84  A    between atoms: _199  and  _200
REMARK   85  A    between atoms: _199  and  _202
REMARK   86  A    between atoms: _202  and  _203
REMARK   87  A    between atoms: _207  and  _208
REMARK   88  A    between atoms: _213  and  _215
REMARK   89  A    between atoms: _215  and  _216
REMARK   90  A    between atoms: _215  and  _218
REMARK   91  A    between atoms: _221  and  _223
REMARK   92  A    between atoms: _223  and  _224
REMARK   93  A    between atoms: _223  and  _226
REMARK   94  A    between atoms: _226  and  _227
REMARK   95  A    between atoms: _232  and  _234
REMARK   96  A    between atoms: _234  and  _235
REMARK   97  A    between atoms: _234  and  _237
REMARK   98  A    between atoms: _237  and  _238
REMARK   99  A    between atoms: _241  and  _243
REMARK  100  A    between atoms: _243  and  _244
REMARK  101  A    between atoms: _243  and  _246
REMARK  102  A    between atoms: _246  and  _247
REMARK  103  A    between atoms: _250  and  _252
REMARK  104  A    between atoms: _252  and  _253
REMARK  105  A    between atoms: _255  and  _257
REMARK  106  A    between atoms: _257  and  _258
REMARK  107  A    between atoms: _257  and  _260
REMARK  108  A    between atoms: _260  and  _261
REMARK  109  A    between atoms: _261  and  _262
REMARK  110  A    between atoms: _262  and  _263
REMARK  111  A    between atoms: _272  and  _274
REMARK  112  A    between atoms: _274  and  _275
REMARK  113  A    between atoms: _274  and  _277
REMARK  114  A    between atoms: _277  and  _278
REMARK  115  A    between atoms: _283  and  _285
REMARK  116  A    between atoms: _285  and  _286
REMARK  117  A    between atoms: _285  and  _288
REMARK  118  A    between atoms: _288  and  _289
REMARK  119  A    between atoms: _289  and  _290
REMARK  120  A    between atoms: _290  and  _291
REMARK  121  A    between atoms: _300  and  _302
REMARK  122  A    between atoms: _302  and  _303
REMARK  123  A    between atoms: _302  and  _305
REMARK  124  A    between atoms: _305  and  _306
REMARK  125  A    between atoms: _309  and  _311
REMARK  126  A    between atoms: _311  and  _312
REMARK  127  A    between atoms: _311  and  _314
REMARK  128  A    between atoms: _314  and  _315
REMARK  129  A    between atoms: _318  and  _320
REMARK  130  A    between atoms: _320  and  _321
REMARK  131  A    between atoms: _320  and  _323
REMARK  132  A    between atoms: _323  and  _324
REMARK  133  A    between atoms: _327  and  _329
REMARK  134  A    between atoms: _329  and  _330
REMARK  135  A    between atoms: _329  and  _332
REMARK  136  A    between atoms: _332  and  _333
REMARK  137  A    between atoms: _336  and  _338
REMARK  138  A    between atoms: _338  and  _339
REMARK  139  A    between atoms: _341  and  _343
REMARK  140  A    between atoms: _343  and  _344
REMARK  141  A    between atoms: _347  and  _349
REMARK  142  A    between atoms: _349  and  _350
REMARK  143  A    between atoms: _349  and  _352
REMARK  144  A    between atoms: _352  and  _353
REMARK  145  A    between atoms: _356  and  _358
REMARK  146  A    between atoms: _358  and  _359
REMARK  147  A    between atoms: _358  and  _361
REMARK  148  A    between atoms: _361  and  _362
REMARK  149  A    between atoms: _365  and  _367
REMARK  150  A    between atoms: _367  and  _368
REMARK  151  A    between atoms: _367  and  _370
REMARK  152  A    between atoms: _370  and  _371
REMARK  153  A    between atoms: _374  and  _376
REMARK  154  A    between atoms: _376  and  _377
REMARK  155  A    between atoms: _376  and  _379
REMARK  156  A    between atoms: _382  and  _384
REMARK  157  A    between atoms: _384  and  _385
REMARK  158  A    between atoms: _384  and  _387
REMARK  159  A    between atoms: _387  and  _388
REMARK  160  A    between atoms: _391  and  _393
REMARK  161  A    between atoms: _393  and  _394
REMARK  162  A    between atoms: _393  and  _396
REMARK  163  A    between atoms: _396  and  _397
REMARK  164  A    between atoms: _397  and  _398
REMARK  165  A    between atoms: _398  and  _399
REMARK  166  A    between atoms: _399  and  _400
REMARK  167  A    between atoms: _404  and  _406
REMARK  168  A    between atoms: _406  and  _407
REMARK  169  A    between atoms: _406  and  _409
REMARK  170  A    between atoms: _409  and  _410
REMARK  171  A    between atoms: _410  and  _411
REMARK  172  A    between atoms: _413  and  _415
REMARK  173  A    between atoms: _415  and  _416
REMARK  174  A    between atoms: _415  and  _418
REMARK  175  A    between atoms: _418  and  _419
REMARK  176  A    between atoms: _422  and  _424
REMARK  177  A    between atoms: _424  and  _425
REMARK  178  A    between atoms: _427  and  _429
REMARK  179  A    between atoms: _429  and  _430
REMARK  180  A    between atoms: _432  and  _434
REMARK  181  A    between atoms: _434  and  _435
REMARK  182  A    between atoms: _434  and  _437
REMARK  183  A    between atoms: _437  and  _438
REMARK  184  A    between atoms: _441  and  _443
REMARK  185  A    between atoms: _443  and  _444
REMARK  186  A    between atoms: _446  and  _448
REMARK  187  A    between atoms: _448  and  _449
REMARK  188  A    between atoms: _451  and  _453
REMARK  189  A    between atoms: _453  and  _454
REMARK  190  A    between atoms: _453  and  _456
REMARK  191  A    between atoms: _456  and  _457
REMARK  192  A    between atoms: _463  and  _465
REMARK  193  A    between atoms: _465  and  _466
REMARK  194  A    between atoms: _465  and  _468
REMARK  195  A    between atoms: _468  and  _469
REMARK  196  A    between atoms: _472  and  _474
REMARK  197  A    between atoms: _474  and  _475
REMARK  198  A    between atoms: _474  and  _477
REMARK  199  A    between atoms: _480  and  _482
REMARK  200  A    between atoms: _482  and  _483
REMARK  201  A    between atoms: _482  and  _485
REMARK  202  A    between atoms: _485  and  _486
REMARK  203  A    between atoms: _489  and  _491
REMARK  204  A    between atoms: _491  and  _492
REMARK  205  A    between atoms: _491  and  _494
REMARK  206  A    between atoms: _494  and  _495
REMARK  207  A    between atoms: _499  and  _500
REMARK  208  A    between atoms: _505  and  _507
REMARK  209  A    between atoms: _507  and  _508
REMARK  210  A    between atoms: _507  and  _510
REMARK  211  A    between atoms: _513  and  _515
REMARK  212  A    between atoms: _515  and  _516
REMARK  213  A    between atoms: _515  and  _518
REMARK  214  A    between atoms: _518  and  _519
REMARK  215  A    between atoms: _524  and  _526
REMARK  216  A    between atoms: _526  and  _527
REMARK  217  A    between atoms: _526  and  _529
REMARK  218  A    between atoms: _529  and  _530
REMARK  219  A    between atoms: _533  and  _535
REMARK  220  A    between atoms: _535  and  _536
REMARK  221  A    between atoms: _535  and  _538
REMARK  222  A    between atoms: _538  and  _539
REMARK  223  A    between atoms: _542  and  _544
REMARK  224  A    between atoms: _544  and  _545
REMARK  225  A    between atoms: _547  and  _549
REMARK  226  A    between atoms: _549  and  _550
REMARK  227  A    between atoms: _549  and  _552
REMARK  228  A    between atoms: _552  and  _553
REMARK  229  A    between atoms: _553  and  _554
REMARK  230  A    between atoms: _554  and  _555
REMARK  231  A    between atoms: _564  and  _566
REMARK  232  A    between atoms: _566  and  _567
REMARK  233  A    between atoms: _566  and  _569
REMARK  234  A    between atoms: _569  and  _570
REMARK                            x       y       z     vdW  Elec       q    Type
REMARK                         _______ _______ _______ _____ _____    ______ ____
ROOT
ATOM      1  O   HOH     1      14.761  15.955  11.198  0.00  0.00    +0.000 OA
ENDROOT
TORSDOF 0
REMARK  Name = ../refined-set-2016/4mc2/4mc2_pocket.pdb
REMARK  234 active torsions:
REMARK  status: ('A' for Active; 'I' for Inactive)
REMARK    1  A    between atoms: _1  and  _3
REMARK    2  A    between atoms: _3  and  _4
REMARK    3  A    between atoms: _3  and  _6
REMARK    4  A    between atoms: _6  and  _7
REMARK    5  A    between atoms: _7  and  _8
REMARK    6  A    between atoms: _8  and  _9
REMARK    7  A    between atoms: _18  and  _20
REMARK    8  A    between atoms: _20  and  _21
REMARK    9  A    between atoms: _20  and  _23
REMARK   10  A    between atoms: _23  and  _24
REMARK   11  A    between atoms: _27  and  _29
REMARK   12  A    between atoms: _29  and  _30
REMARK   13  A    between atoms: _29  and  _32
REMARK   14  A    between atoms: _32  and  _33
REMARK   15  A    between atoms: _36  and  _38
REMARK   16  A    between atoms: _38  and  _39
REMARK   17  A    between atoms: _38  and  _41
REMARK   18  A    between atoms: _41  and  _42
REMARK   19  A    between atoms: _45  and  _47
REMARK   20  A    between atoms: _47  and  _48
REMARK   21  A    between atoms: _47  and  _50
REMARK   22  A    between atoms: _50  and  _51
REMARK   23  A    between atoms: _54  and  _56
REMARK   24  A    between atoms: _56  and  _57
REMARK   25  A    between atoms: _59  and  _61
REMARK   26  A    between atoms: _61  and  _62
REMARK   27  A    between atoms: _65  and  _67
REMARK   28  A    between atoms: _67  and  _68
REMARK   29  A    between atoms: _67  and  _70
REMARK   30  A    between atoms: _70  and  _71
REMARK   31  A    between atoms: _74  and  _76
REMARK   32  A    between atoms: _76  and  _77
REMARK   33  A    between atoms: _76  and  _79
REMARK   34  A    between atoms: _79  and  _80
REMARK   35  A    between atoms: _83  and  _85
REMARK   36  A    between atoms: _85  and  _86
REMARK   37  A    between atoms: _85  and  _88
REMARK   38  A    between atoms: _88  and  _89
REMARK   39  A    between atoms: _92  and  _94
REMARK   40  A    between atoms: _94  and  _95
REMARK   41  A    between atoms: _94  and  _97
REMARK   42  A    between atoms: _100  and  _102
REMARK   43  A    between atoms: _102  and  _103
REMARK   44  A    between atoms: _102  and  _105
REMARK   45  A    between atoms: _105  and  _106
REMARK   46  A    between atoms: _106  and  _107
REMARK   47  A    between atoms: _107  and  _108
REMARK   48  A    between atoms: _108  and  _109
REMARK   49  A    between atoms: _113  and  _115
REMARK   50  A    between atoms: _115  and  _116
REMARK   51  A    between atoms: _115  and  _118
REMARK   52  A    between atoms: _118  and  _119
REMARK   53  A    between atoms: _119  and  _120
REMARK   54  A    between atoms: _122  and  _124
REMARK   55  A    between atoms: _124  and  _125
REMARK   56  A    between atoms: _124  and  _127
REMARK   57  A    between atoms: _127  and  _128
REMARK   58  A    between atoms: _131  and  _133
REMARK   59  A    between atoms: _133  and  _134
REMARK   60  A    between atoms: _136  and  _138
REMARK   61  A    between atoms: _138  and  _139
REMARK   62  A    between atoms: _141  and  _143
REMARK   63  A    between atoms: _143  and  _144
REMARK   64  A    between atoms: _143  and  _146
REMARK   65  A    between atoms: _146  and  _147
REMARK   66  A    between atoms: _150  and  _152
REMARK   67  A    between atoms: _152  and  _153
REMARK   68  A    between atoms: _155  and  _157
REMARK   69  A    between atoms: _157  and  _158
REMARK   70  A    between atoms: _160  and  _162
REMARK   71  A    between atoms: _162  and  _163
REMARK   72  A    between atoms: _162  and  _165
REMARK   73  A    between atoms: _165  and  _166
REMARK   74  A    between atoms: _172  and  _174
REMARK   75  A    between atoms: _174  and  _175
REMARK   76  A    between atoms: _174  and  _177
REMARK   77  A    between atoms: _177  and  _178
REMARK   78  A    between atoms: _181  and  _183
REMARK   79  A    between atoms: _183  and  _184
REMARK   80  A    between atoms: _183  and  _186
REMARK   81  A    between atoms: _186  and  _187
REMARK   82  A    between atoms: _191  and  _192
REMARK   83  A    between atoms: _197  and  _199
REMARK   84  A    between atoms: _199  and  _200
REMARK   85  A    between atoms: _199  and  _202
REMARK   86  A    between atoms: _202  and  _203
REMARK   87  A    between atoms: _207  and  _208
REMARK   88  A    between atoms: _213  and  _215
REMARK   89  A    between atoms: _215  and  _216
REMARK   90  A    between atoms: _215  and  _218
REMARK   91  A    between atoms: _221  and  _223
REMARK   92  A    between atoms: _223  and  _224
REMARK   93  A    between atoms: _223  and  _226
REMARK   94  A    between atoms: _226  and  _227
REMARK   95  A    between atoms: _232  and  _234
REMARK   96  A    between atoms: _234  and  _235
REMARK   97  A    between atoms: _234  and  _237
REMARK   98  A    between atoms: _237  and  _238
REMARK   99  A    between atoms: _241  and  _243
REMARK  100  A    between atoms: _243  and  _244
REMARK  101  A    between atoms: _243  and  _246
REMARK  102  A    between atoms: _246  and  _247
REMARK  103  A    between atoms: _250  and  _252
REMARK  104  A    between atoms: _252  and  _253
REMARK  105  A    between atoms: _255  and  _257
REMARK  106  A    between atoms: _257  and  _258
REMARK  107  A    between atoms: _257  and  _260
REMARK  108  A    between atoms: _260  and  _261
REMARK  109  A    between atoms: _261  and  _262
REMARK  110  A    between atoms: _262  and  _263
REMARK  111  A    between atoms: _272  and  _274
REMARK  112  A    between atoms: _274  and  _275
REMARK  113  A    between atoms: _274  and  _277
REMARK  114  A    between atoms: _277  and  _278
REMARK  115  A    between atoms: _283  and  _285
REMARK  116  A    between atoms: _285  and  _286
REMARK  117  A    between atoms: _285  and  _288
REMARK  118  A    between atoms: _288  and  _289
REMARK  119  A    between atoms: _289  and  _290
REMARK  120  A    between atoms: _290  and  _291
REMARK  121  A    between atoms: _300  and  _302
REMARK  122  A    between atoms: _302  and  _303
REMARK  123  A    between atoms: _302  and  _305
REMARK  124  A    between atoms: _305  and  _306
REMARK  125  A    between atoms: _309  and  _311
REMARK  126  A    between atoms: _311  and  _312
REMARK  127  A    between atoms: _311  and  _314
REMARK  128  A    between atoms: _314  and  _315
REMARK  129  A    between atoms: _318  and  _320
REMARK  130  A    between atoms: _320  and  _321
REMARK  131  A    between atoms: _320  and  _323
REMARK  132  A    between atoms: _323  and  _324
REMARK  133  A    between atoms: _327  and  _329
REMARK  134  A    between atoms: _329  and  _330
REMARK  135  A    between atoms: _329  and  _332
REMARK  136  A    between atoms: _332  and  _333
REMARK  137  A    between atoms: _336  and  _338
REMARK  138  A    between atoms: _338  and  _339
REMARK  139  A    between atoms: _341  and  _343
REMARK  140  A    between atoms: _343  and  _344
REMARK  141  A    between atoms: _347  and  _349
REMARK  142  A    between atoms: _349  and  _350
REMARK  143  A    between atoms: _349  and  _352
REMARK  144  A    between atoms: _352  and  _353
REMARK  145  A    between atoms: _356  and  _358
REMARK  146  A    between atoms: _358  and  _359
REMARK  147  A    between atoms: _358  and  _361
REMARK  148  A    between atoms: _361  and  _362
REMARK  149  A    between atoms: _365  and  _367
REMARK  150  A    between atoms: _367  and  _368
REMARK  151  A    between atoms: _367  and  _370
REMARK  152  A    between atoms: _370  and  _371
REMARK  153  A    between atoms: _374  and  _376
REMARK  154  A    between atoms: _376  and  _377
REMARK  155  A    between atoms: _376  and  _379
REMARK  156  A    between atoms: _382  and  _384
REMARK  157  A    between atoms: _384  and  _385
REMARK  158  A    between atoms: _384  and  _387
REMARK  159  A    between atoms: _387  and  _388
REMARK  160  A    between atoms: _391  and  _393
REMARK  161  A    between atoms: _393  and  _394
REMARK  162  A    between atoms: _393  and  _396
REMARK  163  A    between atoms: _396  and  _397
REMARK  164  A    between atoms: _397  and  _398
REMARK  165  A    between atoms: _398  and  _399
REMARK  166  A    between atoms: _399  and  _400
REMARK  167  A    between atoms: _404  and  _406
REMARK  168  A    between atoms: _406  and  _407
REMARK  169  A    between atoms: _406  and  _409
REMARK  170  A    between atoms: _409  and  _410
REMARK  171  A    between atoms: _410  and  _411
REMARK  172  A    between atoms: _413  and  _415
REMARK  173  A    between atoms: _415  and  _416
REMARK  174  A    between atoms: _415  and  _418
REMARK  175  A    between atoms: _418  and  _419
REMARK  176  A    between atoms: _422  and  _424
REMARK  177  A    between atoms: _424  and  _425
REMARK  178  A    between atoms: _427  and  _429
REMARK  179  A    between atoms: _429  and  _430
REMARK  180  A    between atoms: _432  and  _434
REMARK  181  A    between atoms: _434  and  _435
REMARK  182  A    between atoms: _434  and  _437
REMARK  183  A    between atoms: _437  and  _438
REMARK  184  A    between atoms: _441  and  _443
REMARK  185  A    between atoms: _443  and  _444
REMARK  186  A    between atoms: _446  and  _448
REMARK  187  A    between atoms: _448  and  _449
REMARK  188  A    between atoms: _451  and  _453
REMARK  189  A    between atoms: _453  and  _454
REMARK  190  A    between atoms: _453  and  _456
REMARK  191  A    between atoms: _456  and  _457
REMARK  192  A    between atoms: _463  and  _465
REMARK  193  A    between atoms: _465  and  _466
REMARK  194  A    between atoms: _465  and  _468
REMARK  195  A    between atoms: _468  and  _469
REMARK  196  A    between atoms: _472  and  _474
REMARK  197  A    between atoms: _474  and  _475
REMARK  198  A    between atoms: _474  and  _477
REMARK  199  A    between atoms: _480  and  _482
REMARK  200  A    between atoms: _482  and  _483
REMARK  201  A    between atoms: _482  and  _485
REMARK  202  A    between atoms: _485  and  _486
REMARK  203  A    between atoms: _489  and  _491
REMARK  204  A    between atoms: _491  and  _492
REMARK  205  A    between atoms: _491  and  _494
REMARK  206  A    between atoms: _494  and  _495
REMARK  207  A    between atoms: _499  and  _500
REMARK  208  A    between atoms: _505  and  _507
REMARK  209  A    between atoms: _507  and  _508
REMARK  210  A    between atoms: _507  and  _510
REMARK  211  A    between atoms: _513  and  _515
REMARK  212  A    between atoms: _515  and  _516
REMARK  213  A    between atoms: _515  and  _518
REMARK  214  A    between atoms: _518  and  _519
REMARK  215  A    between atoms: _524  and  _526
REMARK  216  A    between atoms: _526  and  _527
REMARK  217  A    between atoms: _526  and  _529
REMARK  218  A    between atoms: _529  and  _530
REMARK  219  A    between atoms: _533  and  _535
REMARK  220  A    between atoms: _535  and  _536
REMARK  221  A    between atoms: _535  and  _538
REMARK  222  A    between atoms: _538  and  _539
REMARK  223  A    between atoms: _542  and  _544
REMARK  224  A    between atoms: _544  and  _545
REMARK  225  A    between atoms: _547  and  _549
REMARK  226  A    between atoms: _549  and  _550
REMARK  227  A    between atoms: _549  and  _552
REMARK  228  A    between atoms: _552  and  _553
REMARK  229  A    between atoms: _553  and  _554
REMARK  230  A    between atoms: _554  and  _555
REMARK  231  A    between atoms: _564  and  _566
REMARK  232  A    between atoms: _566  and  _567
REMARK  233  A    between atoms: _566  and  _569
REMARK  234  A    between atoms: _569  and  _570
REMARK                            x       y       z     vdW  Elec       q    Type
REMARK                         _______ _______ _______ _____ _____    ______ ____
ROOT
ATOM      1  O   HOH     1      14.220  14.934  13.676  0.00  0.00    +0.000 OA
ENDROOT
TORSDOF 0
REMARK  Name = ../refined-set-2016/4mc2/4mc2_pocket.pdb
REMARK  234 active torsions:
REMARK  status: ('A' for Active; 'I' for Inactive)
REMARK    1  A    between atoms: _1  and  _3
REMARK    2  A    between atoms: _3  and  _4
REMARK    3  A    between atoms: _3  and  _6
REMARK    4  A    between atoms: _6  and  _7
REMARK    5  A    between atoms: _7  and  _8
REMARK    6  A    between atoms: _8  and  _9
REMARK    7  A    between atoms: _18  and  _20
REMARK    8  A    between atoms: _20  and  _21
REMARK    9  A    between atoms: _20  and  _23
REMARK   10  A    between atoms: _23  and  _24
REMARK   11  A    between atoms: _27  and  _29
REMARK   12  A    between atoms: _29  and  _30
REMARK   13  A    between atoms: _29  and  _32
REMARK   14  A    between atoms: _32  and  _33
REMARK   15  A    between atoms: _36  and  _38
REMARK   16  A    between atoms: _38  and  _39
REMARK   17  A    between atoms: _38  and  _41
REMARK   18  A    between atoms: _41  and  _42
REMARK   19  A    between atoms: _45  and  _47
REMARK   20  A    between atoms: _47  and  _48
REMARK   21  A    between atoms: _47  and  _50
REMARK   22  A    between atoms: _50  and  _51
REMARK   23  A    between atoms: _54  and  _56
REMARK   24  A    between atoms: _56  and  _57
REMARK   25  A    between atoms: _59  and  _61
REMARK   26  A    between atoms: _61  and  _62
REMARK   27  A    between atoms: _65  and  _67
REMARK   28  A    between atoms: _67  and  _68
REMARK   29  A    between atoms: _67  and  _70
REMARK   30  A    between atoms: _70  and  _71
REMARK   31  A    between atoms: _74  and  _76
REMARK   32  A    between atoms: _76  and  _77
REMARK   33  A    between atoms: _76  and  _79
REMARK   34  A    between atoms: _79  and  _80
REMARK   35  A    between atoms: _83  and  _85
REMARK   36  A    between atoms: _85  and  _86
REMARK   37  A    between atoms: _85  and  _88
REMARK   38  A    between atoms: _88  and  _89
REMARK   39  A    between atoms: _92  and  _94
REMARK   40  A    between atoms: _94  and  _95
REMARK   41  A    between atoms: _94  and  _97
REMARK   42  A    between atoms: _100  and  _102
REMARK   43  A    between atoms: _102  and  _103
REMARK   44  A    between atoms: _102  and  _105
REMARK   45  A    between atoms: _105  and  _106
REMARK   46  A    between atoms: _106  and  _107
REMARK   47  A    between atoms: _107  and  _108
REMARK   48  A    between atoms: _108  and  _109
REMARK   49  A    between atoms: _113  and  _115
REMARK   50  A    between atoms: _115  and  _116
REMARK   51  A    between atoms: _115  and  _118
REMARK   52  A    between atoms: _118  and  _119
REMARK   53  A    between atoms: _119  and  _120
REMARK   54  A    between atoms: _122  and  _124
REMARK   55  A    between atoms: _124  and  _125
REMARK   56  A    between atoms: _124  and  _127
REMARK   57  A    between atoms: _127  and  _128
REMARK   58  A    between atoms: _131  and  _133
REMARK   59  A    between atoms: _133  and  _134
REMARK   60  A    between atoms: _136  and  _138
REMARK   61  A    between atoms: _138  and  _139
REMARK   62  A    between atoms: _141  and  _143
REMARK   63  A    between atoms: _143  and  _144
REMARK   64  A    between atoms: _143  and  _146
REMARK   65  A    between atoms: _146  and  _147
REMARK   66  A    between atoms: _150  and  _152
REMARK   67  A    between atoms: _152  and  _153
REMARK   68  A    between atoms: _155  and  _157
REMARK   69  A    between atoms: _157  and  _158
REMARK   70  A    between atoms: _160  and  _162
REMARK   71  A    between atoms: _162  and  _163
REMARK   72  A    between atoms: _162  and  _165
REMARK   73  A    between atoms: _165  and  _166
REMARK   74  A    between atoms: _172  and  _174
REMARK   75  A    between atoms: _174  and  _175
REMARK   76  A    between atoms: _174  and  _177
REMARK   77  A    between atoms: _177  and  _178
REMARK   78  A    between atoms: _181  and  _183
REMARK   79  A    between atoms: _183  and  _184
REMARK   80  A    between atoms: _183  and  _186
REMARK   81  A    between atoms: _186  and  _187
REMARK   82  A    between atoms: _191  and  _192
REMARK   83  A    between atoms: _197  and  _199
REMARK   84  A    between atoms: _199  and  _200
REMARK   85  A    between atoms: _199  and  _202
REMARK   86  A    between atoms: _202  and  _203
REMARK   87  A    between atoms: _207  and  _208
REMARK   88  A    between atoms: _213  and  _215
REMARK   89  A    between atoms: _215  and  _216
REMARK   90  A    between atoms: _215  and  _218
REMARK   91  A    between atoms: _221  and  _223
REMARK   92  A    between atoms: _223  and  _224
REMARK   93  A    between atoms: _223  and  _226
REMARK   94  A    between atoms: _226  and  _227
REMARK   95  A    between atoms: _232  and  _234
REMARK   96  A    between atoms: _234  and  _235
REMARK   97  A    between atoms: _234  and  _237
REMARK   98  A    between atoms: _237  and  _238
REMARK   99  A    between atoms: _241  and  _243
REMARK  100  A    between atoms: _243  and  _244
REMARK  101  A    between atoms: _243  and  _246
REMARK  102  A    between atoms: _246  and  _247
REMARK  103  A    between atoms: _250  and  _252
REMARK  104  A    between atoms: _252  and  _253
REMARK  105  A    between atoms: _255  and  _257
REMARK  106  A    between atoms: _257  and  _258
REMARK  107  A    between atoms: _257  and  _260
REMARK  108  A    between atoms: _260  and  _261
REMARK  109  A    between atoms: _261  and  _262
REMARK  110  A    between atoms: _262  and  _263
REMARK  111  A    between atoms: _272  and  _274
REMARK  112  A    between atoms: _274  and  _275
REMARK  113  A    between atoms: _274  and  _277
REMARK  114  A    between atoms: _277  and  _278
REMARK  115  A    between atoms: _283  and  _285
REMARK  116  A    between atoms: _285  and  _286
REMARK  117  A    between atoms: _285  and  _288
REMARK  118  A    between atoms: _288  and  _289
REMARK  119  A    between atoms: _289  and  _290
REMARK  120  A    between atoms: _290  and  _291
REMARK  121  A    between atoms: _300  and  _302
REMARK  122  A    between atoms: _302  and  _303
REMARK  123  A    between atoms: _302  and  _305
REMARK  124  A    between atoms: _305  and  _306
REMARK  125  A    between atoms: _309  and  _311
REMARK  126  A    between atoms: _311  and  _312
REMARK  127  A    between atoms: _311  and  _314
REMARK  128  A    between atoms: _314  and  _315
REMARK  129  A    between atoms: _318  and  _320
REMARK  130  A    between atoms: _320  and  _321
REMARK  131  A    between atoms: _320  and  _323
REMARK  132  A    between atoms: _323  and  _324
REMARK  133  A    between atoms: _327  and  _329
REMARK  134  A    between atoms: _329  and  _330
REMARK  135  A    between atoms: _329  and  _332
REMARK  136  A    between atoms: _332  and  _333
REMARK  137  A    between atoms: _336  and  _338
REMARK  138  A    between atoms: _338  and  _339
REMARK  139  A    between atoms: _341  and  _343
REMARK  140  A    between atoms: _343  and  _344
REMARK  141  A    between atoms: _347  and  _349
REMARK  142  A    between atoms: _349  and  _350
REMARK  143  A    between atoms: _349  and  _352
REMARK  144  A    between atoms: _352  and  _353
REMARK  145  A    between atoms: _356  and  _358
REMARK  146  A    between atoms: _358  and  _359
REMARK  147  A    between atoms: _358  and  _361
REMARK  148  A    between atoms: _361  and  _362
REMARK  149  A    between atoms: _365  and  _367
REMARK  150  A    between atoms: _367  and  _368
REMARK  151  A    between atoms: _367  and  _370
REMARK  152  A    between atoms: _370  and  _371
REMARK  153  A    between atoms: _374  and  _376
REMARK  154  A    between atoms: _376  and  _377
REMARK  155  A    between atoms: _376  and  _379
REMARK  156  A    between atoms: _382  and  _384
REMARK  157  A    between atoms: _384  and  _385
REMARK  158  A    between atoms: _384  and  _387
REMARK  159  A    between atoms: _387  and  _388
REMARK  160  A    between atoms: _391  and  _393
REMARK  161  A    between atoms: _393  and  _394
REMARK  162  A    between atoms: _393  and  _396
REMARK  163  A    between atoms: _396  and  _397
REMARK  164  A    between atoms: _397  and  _398
REMARK  165  A    between atoms: _398  and  _399
REMARK  166  A    between atoms: _399  and  _400
REMARK  167  A    between atoms: _404  and  _406
REMARK  168  A    between atoms: _406  and  _407
REMARK  169  A    between atoms: _406  and  _409
REMARK  170  A    between atoms: _409  and  _410
REMARK  171  A    between atoms: _410  and  _411
REMARK  172  A    between atoms: _413  and  _415
REMARK  173  A    between atoms: _415  and  _416
REMARK  174  A    between atoms: _415  and  _418
REMARK  175  A    between atoms: _418  and  _419
REMARK  176  A    between atoms: _422  and  _424
REMARK  177  A    between atoms: _424  and  _425
REMARK  178  A    between atoms: _427  and  _429
REMARK  179  A    between atoms: _429  and  _430
REMARK  180  A    between atoms: _432  and  _434
REMARK  181  A    between atoms: _434  and  _435
REMARK  182  A    between atoms: _434  and  _437
REMARK  183  A    between atoms: _437  and  _438
REMARK  184  A    between atoms: _441  and  _443
REMARK  185  A    between atoms: _443  and  _444
REMARK  186  A    between atoms: _446  and  _448
REMARK  187  A    between atoms: _448  and  _449
REMARK  188  A    between atoms: _451  and  _453
REMARK  189  A    between atoms: _453  and  _454
REMARK  190  A    between atoms: _453  and  _456
REMARK  191  A    between atoms: _456  and  _457
REMARK  192  A    between atoms: _463  and  _465
REMARK  193  A    between atoms: _465  and  _466
REMARK  194  A    between atoms: _465  and  _468
REMARK  195  A    between atoms: _468  and  _469
REMARK  196  A    between atoms: _472  and  _474
REMARK  197  A    between atoms: _474  and  _475
REMARK  198  A    between atoms: _474  and  _477
REMARK  199  A    between atoms: _480  and  _482
REMARK  200  A    between atoms: _482  and  _483
REMARK  201  A    between atoms: _482  and  _485
REMARK  202  A    between atoms: _485  and  _486
REMARK  203  A    between atoms: _489  and  _491
REMARK  204  A    between atoms: _491  and  _492
REMARK  205  A    between atoms: _491  and  _494
REMARK  206  A    between atoms: _494  and  _495
REMARK  207  A    between atoms: _499  and  _500
REMARK  208  A    between atoms: _505  and  _507
REMARK  209  A    between atoms: _507  and  _508
REMARK  210  A    between atoms: _507  and  _510
REMARK  211  A    between atoms: _513  and  _515
REMARK  212  A    between atoms: _515  and  _516
REMARK  213  A    between atoms: _515  and  _518
REMARK  214  A    between atoms: _518  and  _519
REMARK  215  A    between atoms: _524  and  _526
REMARK  216  A    between atoms: _526  and  _527
REMARK  217  A    between atoms: _526  and  _529
REMARK  218  A    between atoms: _529  and  _530
REMARK  219  A    between atoms: _533  and  _535
REMARK  220  A    between atoms: _535  and  _536
REMARK  221  A    between atoms: _535  and  _538
REMARK  222  A    between atoms: _538  and  _539
REMARK  223  A    between atoms: _542  and  _544
REMARK  224  A    between atoms: _544  and  _545
REMARK  225  A    between atoms: _547  and  _549
REMARK  226  A    between atoms: _549  and  _550
REMARK  227  A    between atoms: _549  and  _552
REMARK  228  A    between atoms: _552  and  _553
REMARK  229  A    between atoms: _553  and  _554
REMARK  230  A    between atoms: _554  and  _555
REMARK  231  A    between atoms: _564  and  _566
REMARK  232  A    between atoms: _566  and  _567
REMARK  233  A    between atoms: _566  and  _569
REMARK  234  A    between atoms: _569  and  _570
REMARK                            x       y       z     vdW  Elec       q    Type
REMARK                         _______ _______ _______ _____ _____    ______ ____
ROOT
ATOM      1  O   HOH     1      11.198  20.707   6.545  0.00  0.00    +0.000 OA
ENDROOT
TORSDOF 0
REMARK  Name = ../refined-set-2016/4mc2/4mc2_pocket.pdb
REMARK  234 active torsions:
REMARK  status: ('A' for Active; 'I' for Inactive)
REMARK    1  A    between atoms: _1  and  _3
REMARK    2  A    between atoms: _3  and  _4
REMARK    3  A    between atoms: _3  and  _6
REMARK    4  A    between atoms: _6  and  _7
REMARK    5  A    between atoms: _7  and  _8
REMARK    6  A    between atoms: _8  and  _9
REMARK    7  A    between atoms: _18  and  _20
REMARK    8  A    between atoms: _20  and  _21
REMARK    9  A    between atoms: _20  and  _23
REMARK   10  A    between atoms: _23  and  _24
REMARK   11  A    between atoms: _27  and  _29
REMARK   12  A    between atoms: _29  and  _30
REMARK   13  A    between atoms: _29  and  _32
REMARK   14  A    between atoms: _32  and  _33
REMARK   15  A    between atoms: _36  and  _38
REMARK   16  A    between atoms: _38  and  _39
REMARK   17  A    between atoms: _38  and  _41
REMARK   18  A    between atoms: _41  and  _42
REMARK   19  A    between atoms: _45  and  _47
REMARK   20  A    between atoms: _47  and  _48
REMARK   21  A    between atoms: _47  and  _50
REMARK   22  A    between atoms: _50  and  _51
REMARK   23  A    between atoms: _54  and  _56
REMARK   24  A    between atoms: _56  and  _57
REMARK   25  A    between atoms: _59  and  _61
REMARK   26  A    between atoms: _61  and  _62
REMARK   27  A    between atoms: _65  and  _67
REMARK   28  A    between atoms: _67  and  _68
REMARK   29  A    between atoms: _67  and  _70
REMARK   30  A    between atoms: _70  and  _71
REMARK   31  A    between atoms: _74  and  _76
REMARK   32  A    between atoms: _76  and  _77
REMARK   33  A    between atoms: _76  and  _79
REMARK   34  A    between atoms: _79  and  _80
REMARK   35  A    between atoms: _83  and  _85
REMARK   36  A    between atoms: _85  and  _86
REMARK   37  A    between atoms: _85  and  _88
REMARK   38  A    between atoms: _88  and  _89
REMARK   39  A    between atoms: _92  and  _94
REMARK   40  A    between atoms: _94  and  _95
REMARK   41  A    between atoms: _94  and  _97
REMARK   42  A    between atoms: _100  and  _102
REMARK   43  A    between atoms: _102  and  _103
REMARK   44  A    between atoms: _102  and  _105
REMARK   45  A    between atoms: _105  and  _106
REMARK   46  A    between atoms: _106  and  _107
REMARK   47  A    between atoms: _107  and  _108
REMARK   48  A    between atoms: _108  and  _109
REMARK   49  A    between atoms: _113  and  _115
REMARK   50  A    between atoms: _115  and  _116
REMARK   51  A    between atoms: _115  and  _118
REMARK   52  A    between atoms: _118  and  _119
REMARK   53  A    between atoms: _119  and  _120
REMARK   54  A    between atoms: _122  and  _124
REMARK   55  A    between atoms: _124  and  _125
REMARK   56  A    between atoms: _124  and  _127
REMARK   57  A    between atoms: _127  and  _128
REMARK   58  A    between atoms: _131  and  _133
REMARK   59  A    between atoms: _133  and  _134
REMARK   60  A    between atoms: _136  and  _138
REMARK   61  A    between atoms: _138  and  _139
REMARK   62  A    between atoms: _141  and  _143
REMARK   63  A    between atoms: _143  and  _144
REMARK   64  A    between atoms: _143  and  _146
REMARK   65  A    between atoms: _146  and  _147
REMARK   66  A    between atoms: _150  and  _152
REMARK   67  A    between atoms: _152  and  _153
REMARK   68  A    between atoms: _155  and  _157
REMARK   69  A    between atoms: _157  and  _158
REMARK   70  A    between atoms: _160  and  _162
REMARK   71  A    between atoms: _162  and  _163
REMARK   72  A    between atoms: _162  and  _165
REMARK   73  A    between atoms: _165  and  _166
REMARK   74  A    between atoms: _172  and  _174
REMARK   75  A    between atoms: _174  and  _175
REMARK   76  A    between atoms: _174  and  _177
REMARK   77  A    between atoms: _177  and  _178
REMARK   78  A    between atoms: _181  and  _183
REMARK   79  A    between atoms: _183  and  _184
REMARK   80  A    between atoms: _183  and  _186
REMARK   81  A    between atoms: _186  and  _187
REMARK   82  A    between atoms: _191  and  _192
REMARK   83  A    between atoms: _197  and  _199
REMARK   84  A    between atoms: _199  and  _200
REMARK   85  A    between atoms: _199  and  _202
REMARK   86  A    between atoms: _202  and  _203
REMARK   87  A    between atoms: _207  and  _208
REMARK   88  A    between atoms: _213  and  _215
REMARK   89  A    between atoms: _215  and  _216
REMARK   90  A    between atoms: _215  and  _218
REMARK   91  A    between atoms: _221  and  _223
REMARK   92  A    between atoms: _223  and  _224
REMARK   93  A    between atoms: _223  and  _226
REMARK   94  A    between atoms: _226  and  _227
REMARK   95  A    between atoms: _232  and  _234
REMARK   96  A    between atoms: _234  and  _235
REMARK   97  A    between atoms: _234  and  _237
REMARK   98  A    between atoms: _237  and  _238
REMARK   99  A    between atoms: _241  and  _243
REMARK  100  A    between atoms: _243  and  _244
REMARK  101  A    between atoms: _243  and  _246
REMARK  102  A    between atoms: _246  and  _247
REMARK  103  A    between atoms: _250  and  _252
REMARK  104  A    between atoms: _252  and  _253
REMARK  105  A    between atoms: _255  and  _257
REMARK  106  A    between atoms: _257  and  _258
REMARK  107  A    between atoms: _257  and  _260
REMARK  108  A    between atoms: _260  and  _261
REMARK  109  A    between atoms: _261  and  _262
REMARK  110  A    between atoms: _262  and  _263
REMARK  111  A    between atoms: _272  and  _274
REMARK  112  A    between atoms: _274  and  _275
REMARK  113  A    between atoms: _274  and  _277
REMARK  114  A    between atoms: _277  and  _278
REMARK  115  A    between atoms: _283  and  _285
REMARK  116  A    between atoms: _285  and  _286
REMARK  117  A    between atoms: _285  and  _288
REMARK  118  A    between atoms: _288  and  _289
REMARK  119  A    between atoms: _289  and  _290
REMARK  120  A    between atoms: _290  and  _291
REMARK  121  A    between atoms: _300  and  _302
REMARK  122  A    between atoms: _302  and  _303
REMARK  123  A    between atoms: _302  and  _305
REMARK  124  A    between atoms: _305  and  _306
REMARK  125  A    between atoms: _309  and  _311
REMARK  126  A    between atoms: _311  and  _312
REMARK  127  A    between atoms: _311  and  _314
REMARK  128  A    between atoms: _314  and  _315
REMARK  129  A    between atoms: _318  and  _320
REMARK  130  A    between atoms: _320  and  _321
REMARK  131  A    between atoms: _320  and  _323
REMARK  132  A    between atoms: _323  and  _324
REMARK  133  A    between atoms: _327  and  _329
REMARK  134  A    between atoms: _329  and  _330
REMARK  135  A    between atoms: _329  and  _332
REMARK  136  A    between atoms: _332  and  _333
REMARK  137  A    between atoms: _336  and  _338
REMARK  138  A    between atoms: _338  and  _339
REMARK  139  A    between atoms: _341  and  _343
REMARK  140  A    between atoms: _343  and  _344
REMARK  141  A    between atoms: _347  and  _349
REMARK  142  A    between atoms: _349  and  _350
REMARK  143  A    between atoms: _349  and  _352
REMARK  144  A    between atoms: _352  and  _353
REMARK  145  A    between atoms: _356  and  _358
REMARK  146  A    between atoms: _358  and  _359
REMARK  147  A    between atoms: _358  and  _361
REMARK  148  A    between atoms: _361  and  _362
REMARK  149  A    between atoms: _365  and  _367
REMARK  150  A    between atoms: _367  and  _368
REMARK  151  A    between atoms: _367  and  _370
REMARK  152  A    between atoms: _370  and  _371
REMARK  153  A    between atoms: _374  and  _376
REMARK  154  A    between atoms: _376  and  _377
REMARK  155  A    between atoms: _376  and  _379
REMARK  156  A    between atoms: _382  and  _384
REMARK  157  A    between atoms: _384  and  _385
REMARK  158  A    between atoms: _384  and  _387
REMARK  159  A    between atoms: _387  and  _388
REMARK  160  A    between atoms: _391  and  _393
REMARK  161  A    between atoms: _393  and  _394
REMARK  162  A    between atoms: _393  and  _396
REMARK  163  A    between atoms: _396  and  _397
REMARK  164  A    between atoms: _397  and  _398
REMARK  165  A    between atoms: _398  and  _399
REMARK  166  A    between atoms: _399  and  _400
REMARK  167  A    between atoms: _404  and  _406
REMARK  168  A    between atoms: _406  and  _407
REMARK  169  A    between atoms: _406  and  _409
REMARK  170  A    between atoms: _409  and  _410
REMARK  171  A    between atoms: _410  and  _411
REMARK  172  A    between atoms: _413  and  _415
REMARK  173  A    between atoms: _415  and  _416
REMARK  174  A    between atoms: _415  and  _418
REMARK  175  A    between atoms: _418  and  _419
REMARK  176  A    between atoms: _422  and  _424
REMARK  177  A    between atoms: _424  and  _425
REMARK  178  A    between atoms: _427  and  _429
REMARK  179  A    between atoms: _429  and  _430
REMARK  180  A    between atoms: _432  and  _434
REMARK  181  A    between atoms: _434  and  _435
REMARK  182  A    between atoms: _434  and  _437
REMARK  183  A    between atoms: _437  and  _438
REMARK  184  A    between atoms: _441  and  _443
REMARK  185  A    between atoms: _443  and  _444
REMARK  186  A    between atoms: _446  and  _448
REMARK  187  A    between atoms: _448  and  _449
REMARK  188  A    between atoms: _451  and  _453
REMARK  189  A    between atoms: _453  and  _454
REMARK  190  A    between atoms: _453  and  _456
REMARK  191  A    between atoms: _456  and  _457
REMARK  192  A    between atoms: _463  and  _465
REMARK  193  A    between atoms: _465  and  _466
REMARK  194  A    between atoms: _465  and  _468
REMARK  195  A    between atoms: _468  and  _469
REMARK  196  A    between atoms: _472  and  _474
REMARK  197  A    between atoms: _474  and  _475
REMARK  198  A    between atoms: _474  and  _477
REMARK  199  A    between atoms: _480  and  _482
REMARK  200  A    between atoms: _482  and  _483
REMARK  201  A    between atoms: _482  and  _485
REMARK  202  A    between atoms: _485  and  _486
REMARK  203  A    between atoms: _489  and  _491
REMARK  204  A    between atoms: _491  and  _492
REMARK  205  A    between atoms: _491  and  _494
REMARK  206  A    between atoms: _494  and  _495
REMARK  207  A    between atoms: _499  and  _500
REMARK  208  A    between atoms: _505  and  _507
REMARK  209  A    between atoms: _507  and  _508
REMARK  210  A    between atoms: _507  and  _510
REMARK  211  A    between atoms: _513  and  _515
REMARK  212  A    between atoms: _515  and  _516
REMARK  213  A    between atoms: _515  and  _518
REMARK  214  A    between atoms: _518  and  _519
REMARK  215  A    between atoms: _524  and  _526
REMARK  216  A    between atoms: _526  and  _527
REMARK  217  A    between atoms: _526  and  _529
REMARK  218  A    between atoms: _529  and  _530
REMARK  219  A    between atoms: _533  and  _535
REMARK  220  A    between atoms: _535  and  _536
REMARK  221  A    between atoms: _535  and  _538
REMARK  222  A    between atoms: _538  and  _539
REMARK  223  A    between atoms: _542  and  _544
REMARK  224  A    between atoms: _544  and  _545
REMARK  225  A    between atoms: _547  and  _549
REMARK  226  A    between atoms: _549  and  _550
REMARK  227  A    between atoms: _549  and  _552
REMARK  228  A    between atoms: _552  and  _553
REMARK  229  A    between atoms: _553  and  _554
REMARK  230  A    between atoms: _554  and  _555
REMARK  231  A    between atoms: _564  and  _566
REMARK  232  A    between atoms: _566  and  _567
REMARK  233  A    between atoms: _566  and  _569
REMARK  234  A    between atoms: _569  and  _570
REMARK                            x       y       z     vdW  Elec       q    Type
REMARK                         _______ _______ _______ _____ _____    ______ ____
ROOT
ATOM      1  O   HOH     1      19.261  20.198   5.545  0.00  0.00    +0.000 OA
ENDROOT
TORSDOF 0
REMARK  Name = ../refined-set-2016/4mc2/4mc2_pocket.pdb
REMARK  234 active torsions:
REMARK  status: ('A' for Active; 'I' for Inactive)
REMARK    1  A    between atoms: _1  and  _3
REMARK    2  A    between atoms: _3  and  _4
REMARK    3  A    between atoms: _3  and  _6
REMARK    4  A    between atoms: _6  and  _7
REMARK    5  A    between atoms: _7  and  _8
REMARK    6  A    between atoms: _8  and  _9
REMARK    7  A    between atoms: _18  and  _20
REMARK    8  A    between atoms: _20  and  _21
REMARK    9  A    between atoms: _20  and  _23
REMARK   10  A    between atoms: _23  and  _24
REMARK   11  A    between atoms: _27  and  _29
REMARK   12  A    between atoms: _29  and  _30
REMARK   13  A    between atoms: _29  and  _32
REMARK   14  A    between atoms: _32  and  _33
REMARK   15  A    between atoms: _36  and  _38
REMARK   16  A    between atoms: _38  and  _39
REMARK   17  A    between atoms: _38  and  _41
REMARK   18  A    between atoms: _41  and  _42
REMARK   19  A    between atoms: _45  and  _47
REMARK   20  A    between atoms: _47  and  _48
REMARK   21  A    between atoms: _47  and  _50
REMARK   22  A    between atoms: _50  and  _51
REMARK   23  A    between atoms: _54  and  _56
REMARK   24  A    between atoms: _56  and  _57
REMARK   25  A    between atoms: _59  and  _61
REMARK   26  A    between atoms: _61  and  _62
REMARK   27  A    between atoms: _65  and  _67
REMARK   28  A    between atoms: _67  and  _68
REMARK   29  A    between atoms: _67  and  _70
REMARK   30  A    between atoms: _70  and  _71
REMARK   31  A    between atoms: _74  and  _76
REMARK   32  A    between atoms: _76  and  _77
REMARK   33  A    between atoms: _76  and  _79
REMARK   34  A    between atoms: _79  and  _80
REMARK   35  A    between atoms: _83  and  _85
REMARK   36  A    between atoms: _85  and  _86
REMARK   37  A    between atoms: _85  and  _88
REMARK   38  A    between atoms: _88  and  _89
REMARK   39  A    between atoms: _92  and  _94
REMARK   40  A    between atoms: _94  and  _95
REMARK   41  A    between atoms: _94  and  _97
REMARK   42  A    between atoms: _100  and  _102
REMARK   43  A    between atoms: _102  and  _103
REMARK   44  A    between atoms: _102  and  _105
REMARK   45  A    between atoms: _105  and  _106
REMARK   46  A    between atoms: _106  and  _107
REMARK   47  A    between atoms: _107  and  _108
REMARK   48  A    between atoms: _108  and  _109
REMARK   49  A    between atoms: _113  and  _115
REMARK   50  A    between atoms: _115  and  _116
REMARK   51  A    between atoms: _115  and  _118
REMARK   52  A    between atoms: _118  and  _119
REMARK   53  A    between atoms: _119  and  _120
REMARK   54  A    between atoms: _122  and  _124
REMARK   55  A    between atoms: _124  and  _125
REMARK   56  A    between atoms: _124  and  _127
REMARK   57  A    between atoms: _127  and  _128
REMARK   58  A    between atoms: _131  and  _133
REMARK   59  A    between atoms: _133  and  _134
REMARK   60  A    between atoms: _136  and  _138
REMARK   61  A    between atoms: _138  and  _139
REMARK   62  A    between atoms: _141  and  _143
REMARK   63  A    between atoms: _143  and  _144
REMARK   64  A    between atoms: _143  and  _146
REMARK   65  A    between atoms: _146  and  _147
REMARK   66  A    between atoms: _150  and  _152
REMARK   67  A    between atoms: _152  and  _153
REMARK   68  A    between atoms: _155  and  _157
REMARK   69  A    between atoms: _157  and  _158
REMARK   70  A    between atoms: _160  and  _162
REMARK   71  A    between atoms: _162  and  _163
REMARK   72  A    between atoms: _162  and  _165
REMARK   73  A    between atoms: _165  and  _166
REMARK   74  A    between atoms: _172  and  _174
REMARK   75  A    between atoms: _174  and  _175
REMARK   76  A    between atoms: _174  and  _177
REMARK   77  A    between atoms: _177  and  _178
REMARK   78  A    between atoms: _181  and  _183
REMARK   79  A    between atoms: _183  and  _184
REMARK   80  A    between atoms: _183  and  _186
REMARK   81  A    between atoms: _186  and  _187
REMARK   82  A    between atoms: _191  and  _192
REMARK   83  A    between atoms: _197  and  _199
REMARK   84  A    between atoms: _199  and  _200
REMARK   85  A    between atoms: _199  and  _202
REMARK   86  A    between atoms: _202  and  _203
REMARK   87  A    between atoms: _207  and  _208
REMARK   88  A    between atoms: _213  and  _215
REMARK   89  A    between atoms: _215  and  _216
REMARK   90  A    between atoms: _215  and  _218
REMARK   91  A    between atoms: _221  and  _223
REMARK   92  A    between atoms: _223  and  _224
REMARK   93  A    between atoms: _223  and  _226
REMARK   94  A    between atoms: _226  and  _227
REMARK   95  A    between atoms: _232  and  _234
REMARK   96  A    between atoms: _234  and  _235
REMARK   97  A    between atoms: _234  and  _237
REMARK   98  A    between atoms: _237  and  _238
REMARK   99  A    between atoms: _241  and  _243
REMARK  100  A    between atoms: _243  and  _244
REMARK  101  A    between atoms: _243  and  _246
REMARK  102  A    between atoms: _246  and  _247
REMARK  103  A    between atoms: _250  and  _252
REMARK  104  A    between atoms: _252  and  _253
REMARK  105  A    between atoms: _255  and  _257
REMARK  106  A    between atoms: _257  and  _258
REMARK  107  A    between atoms: _257  and  _260
REMARK  108  A    between atoms: _260  and  _261
REMARK  109  A    between atoms: _261  and  _262
REMARK  110  A    between atoms: _262  and  _263
REMARK  111  A    between atoms: _272  and  _274
REMARK  112  A    between atoms: _274  and  _275
REMARK  113  A    between atoms: _274  and  _277
REMARK  114  A    between atoms: _277  and  _278
REMARK  115  A    between atoms: _283  and  _285
REMARK  116  A    between atoms: _285  and  _286
REMARK  117  A    between atoms: _285  and  _288
REMARK  118  A    between atoms: _288  and  _289
REMARK  119  A    between atoms: _289  and  _290
REMARK  120  A    between atoms: _290  and  _291
REMARK  121  A    between atoms: _300  and  _302
REMARK  122  A    between atoms: _302  and  _303
REMARK  123  A    between atoms: _302  and  _305
REMARK  124  A    between atoms: _305  and  _306
REMARK  125  A    between atoms: _309  and  _311
REMARK  126  A    between atoms: _311  and  _312
REMARK  127  A    between atoms: _311  and  _314
REMARK  128  A    between atoms: _314  and  _315
REMARK  129  A    between atoms: _318  and  _320
REMARK  130  A    between atoms: _320  and  _321
REMARK  131  A    between atoms: _320  and  _323
REMARK  132  A    between atoms: _323  and  _324
REMARK  133  A    between atoms: _327  and  _329
REMARK  134  A    between atoms: _329  and  _330
REMARK  135  A    between atoms: _329  and  _332
REMARK  136  A    between atoms: _332  and  _333
REMARK  137  A    between atoms: _336  and  _338
REMARK  138  A    between atoms: _338  and  _339
REMARK  139  A    between atoms: _341  and  _343
REMARK  140  A    between atoms: _343  and  _344
REMARK  141  A    between atoms: _347  and  _349
REMARK  142  A    between atoms: _349  and  _350
REMARK  143  A    between atoms: _349  and  _352
REMARK  144  A    between atoms: _352  and  _353
REMARK  145  A    between atoms: _356  and  _358
REMARK  146  A    between atoms: _358  and  _359
REMARK  147  A    between atoms: _358  and  _361
REMARK  148  A    between atoms: _361  and  _362
REMARK  149  A    between atoms: _365  and  _367
REMARK  150  A    between atoms: _367  and  _368
REMARK  151  A    between atoms: _367  and  _370
REMARK  152  A    between atoms: _370  and  _371
REMARK  153  A    between atoms: _374  and  _376
REMARK  154  A    between atoms: _376  and  _377
REMARK  155  A    between atoms: _376  and  _379
REMARK  156  A    between atoms: _382  and  _384
REMARK  157  A    between atoms: _384  and  _385
REMARK  158  A    between atoms: _384  and  _387
REMARK  159  A    between atoms: _387  and  _388
REMARK  160  A    between atoms: _391  and  _393
REMARK  161  A    between atoms: _393  and  _394
REMARK  162  A    between atoms: _393  and  _396
REMARK  163  A    between atoms: _396  and  _397
REMARK  164  A    between atoms: _397  and  _398
REMARK  165  A    between atoms: _398  and  _399
REMARK  166  A    between atoms: _399  and  _400
REMARK  167  A    between atoms: _404  and  _406
REMARK  168  A    between atoms: _406  and  _407
REMARK  169  A    between atoms: _406  and  _409
REMARK  170  A    between atoms: _409  and  _410
REMARK  171  A    between atoms: _410  and  _411
REMARK  172  A    between atoms: _413  and  _415
REMARK  173  A    between atoms: _415  and  _416
REMARK  174  A    between atoms: _415  and  _418
REMARK  175  A    between atoms: _418  and  _419
REMARK  176  A    between atoms: _422  and  _424
REMARK  177  A    between atoms: _424  and  _425
REMARK  178  A    between atoms: _427  and  _429
REMARK  179  A    between atoms: _429  and  _430
REMARK  180  A    between atoms: _432  and  _434
REMARK  181  A    between atoms: _434  and  _435
REMARK  182  A    between atoms: _434  and  _437
REMARK  183  A    between atoms: _437  and  _438
REMARK  184  A    between atoms: _441  and  _443
REMARK  185  A    between atoms: _443  and  _444
REMARK  186  A    between atoms: _446  and  _448
REMARK  187  A    between atoms: _448  and  _449
REMARK  188  A    between atoms: _451  and  _453
REMARK  189  A    between atoms: _453  and  _454
REMARK  190  A    between atoms: _453  and  _456
REMARK  191  A    between atoms: _456  and  _457
REMARK  192  A    between atoms: _463  and  _465
REMARK  193  A    between atoms: _465  and  _466
REMARK  194  A    between atoms: _465  and  _468
REMARK  195  A    between atoms: _468  and  _469
REMARK  196  A    between atoms: _472  and  _474
REMARK  197  A    between atoms: _474  and  _475
REMARK  198  A    between atoms: _474  and  _477
REMARK  199  A    between atoms: _480  and  _482
REMARK  200  A    between atoms: _482  and  _483
REMARK  201  A    between atoms: _482  and  _485
REMARK  202  A    between atoms: _485  and  _486
REMARK  203  A    between atoms: _489  and  _491
REMARK  204  A    between atoms: _491  and  _492
REMARK  205  A    between atoms: _491  and  _494
REMARK  206  A    between atoms: _494  and  _495
REMARK  207  A    between atoms: _499  and  _500
REMARK  208  A    between atoms: _505  and  _507
REMARK  209  A    between atoms: _507  and  _508
REMARK  210  A    between atoms: _507  and  _510
REMARK  211  A    between atoms: _513  and  _515
REMARK  212  A    between atoms: _515  and  _516
REMARK  213  A    between atoms: _515  and  _518
REMARK  214  A    between atoms: _518  and  _519
REMARK  215  A    between atoms: _524  and  _526
REMARK  216  A    between atoms: _526  and  _527
REMARK  217  A    between atoms: _526  and  _529
REMARK  218  A    between atoms: _529  and  _530
REMARK  219  A    between atoms: _533  and  _535
REMARK  220  A    between atoms: _535  and  _536
REMARK  221  A    between atoms: _535  and  _538
REMARK  222  A    between atoms: _538  and  _539
REMARK  223  A    between atoms: _542  and  _544
REMARK  224  A    between atoms: _544  and  _545
REMARK  225  A    between atoms: _547  and  _549
REMARK  226  A    between atoms: _549  and  _550
REMARK  227  A    between atoms: _549  and  _552
REMARK  228  A    between atoms: _552  and  _553
REMARK  229  A    between atoms: _553  and  _554
REMARK  230  A    between atoms: _554  and  _555
REMARK  231  A    between atoms: _564  and  _566
REMARK  232  A    between atoms: _566  and  _567
REMARK  233  A    between atoms: _566  and  _569
REMARK  234  A    between atoms: _569  and  _570
REMARK                            x       y       z     vdW  Elec       q    Type
REMARK                         _______ _______ _______ _____ _____    ______ ____
ROOT
ATOM      1  O   HOH     1      18.147  17.780   6.899  0.00  0.00    +0.000 OA
ENDROOT
TORSDOF 0
REMARK  Name = ../refined-set-2016/4mc2/4mc2_pocket.pdb
REMARK  234 active torsions:
REMARK  status: ('A' for Active; 'I' for Inactive)
REMARK    1  A    between atoms: _1  and  _3
REMARK    2  A    between atoms: _3  and  _4
REMARK    3  A    between atoms: _3  and  _6
REMARK    4  A    between atoms: _6  and  _7
REMARK    5  A    between atoms: _7  and  _8
REMARK    6  A    between atoms: _8  and  _9
REMARK    7  A    between atoms: _18  and  _20
REMARK    8  A    between atoms: _20  and  _21
REMARK    9  A    between atoms: _20  and  _23
REMARK   10  A    between atoms: _23  and  _24
REMARK   11  A    between atoms: _27  and  _29
REMARK   12  A    between atoms: _29  and  _30
REMARK   13  A    between atoms: _29  and  _32
REMARK   14  A    between atoms: _32  and  _33
REMARK   15  A    between atoms: _36  and  _38
REMARK   16  A    between atoms: _38  and  _39
REMARK   17  A    between atoms: _38  and  _41
REMARK   18  A    between atoms: _41  and  _42
REMARK   19  A    between atoms: _45  and  _47
REMARK   20  A    between atoms: _47  and  _48
REMARK   21  A    between atoms: _47  and  _50
REMARK   22  A    between atoms: _50  and  _51
REMARK   23  A    between atoms: _54  and  _56
REMARK   24  A    between atoms: _56  and  _57
REMARK   25  A    between atoms: _59  and  _61
REMARK   26  A    between atoms: _61  and  _62
REMARK   27  A    between atoms: _65  and  _67
REMARK   28  A    between atoms: _67  and  _68
REMARK   29  A    between atoms: _67  and  _70
REMARK   30  A    between atoms: _70  and  _71
REMARK   31  A    between atoms: _74  and  _76
REMARK   32  A    between atoms: _76  and  _77
REMARK   33  A    between atoms: _76  and  _79
REMARK   34  A    between atoms: _79  and  _80
REMARK   35  A    between atoms: _83  and  _85
REMARK   36  A    between atoms: _85  and  _86
REMARK   37  A    between atoms: _85  and  _88
REMARK   38  A    between atoms: _88  and  _89
REMARK   39  A    between atoms: _92  and  _94
REMARK   40  A    between atoms: _94  and  _95
REMARK   41  A    between atoms: _94  and  _97
REMARK   42  A    between atoms: _100  and  _102
REMARK   43  A    between atoms: _102  and  _103
REMARK   44  A    between atoms: _102  and  _105
REMARK   45  A    between atoms: _105  and  _106
REMARK   46  A    between atoms: _106  and  _107
REMARK   47  A    between atoms: _107  and  _108
REMARK   48  A    between atoms: _108  and  _109
REMARK   49  A    between atoms: _113  and  _115
REMARK   50  A    between atoms: _115  and  _116
REMARK   51  A    between atoms: _115  and  _118
REMARK   52  A    between atoms: _118  and  _119
REMARK   53  A    between atoms: _119  and  _120
REMARK   54  A    between atoms: _122  and  _124
REMARK   55  A    between atoms: _124  and  _125
REMARK   56  A    between atoms: _124  and  _127
REMARK   57  A    between atoms: _127  and  _128
REMARK   58  A    between atoms: _131  and  _133
REMARK   59  A    between atoms: _133  and  _134
REMARK   60  A    between atoms: _136  and  _138
REMARK   61  A    between atoms: _138  and  _139
REMARK   62  A    between atoms: _141  and  _143
REMARK   63  A    between atoms: _143  and  _144
REMARK   64  A    between atoms: _143  and  _146
REMARK   65  A    between atoms: _146  and  _147
REMARK   66  A    between atoms: _150  and  _152
REMARK   67  A    between atoms: _152  and  _153
REMARK   68  A    between atoms: _155  and  _157
REMARK   69  A    between atoms: _157  and  _158
REMARK   70  A    between atoms: _160  and  _162
REMARK   71  A    between atoms: _162  and  _163
REMARK   72  A    between atoms: _162  and  _165
REMARK   73  A    between atoms: _165  and  _166
REMARK   74  A    between atoms: _172  and  _174
REMARK   75  A    between atoms: _174  and  _175
REMARK   76  A    between atoms: _174  and  _177
REMARK   77  A    between atoms: _177  and  _178
REMARK   78  A    between atoms: _181  and  _183
REMARK   79  A    between atoms: _183  and  _184
REMARK   80  A    between atoms: _183  and  _186
REMARK   81  A    between atoms: _186  and  _187
REMARK   82  A    between atoms: _191  and  _192
REMARK   83  A    between atoms: _197  and  _199
REMARK   84  A    between atoms: _199  and  _200
REMARK   85  A    between atoms: _199  and  _202
REMARK   86  A    between atoms: _202  and  _203
REMARK   87  A    between atoms: _207  and  _208
REMARK   88  A    between atoms: _213  and  _215
REMARK   89  A    between atoms: _215  and  _216
REMARK   90  A    between atoms: _215  and  _218
REMARK   91  A    between atoms: _221  and  _223
REMARK   92  A    between atoms: _223  and  _224
REMARK   93  A    between atoms: _223  and  _226
REMARK   94  A    between atoms: _226  and  _227
REMARK   95  A    between atoms: _232  and  _234
REMARK   96  A    between atoms: _234  and  _235
REMARK   97  A    between atoms: _234  and  _237
REMARK   98  A    between atoms: _237  and  _238
REMARK   99  A    between atoms: _241  and  _243
REMARK  100  A    between atoms: _243  and  _244
REMARK  101  A    between atoms: _243  and  _246
REMARK  102  A    between atoms: _246  and  _247
REMARK  103  A    between atoms: _250  and  _252
REMARK  104  A    between atoms: _252  and  _253
REMARK  105  A    between atoms: _255  and  _257
REMARK  106  A    between atoms: _257  and  _258
REMARK  107  A    between atoms: _257  and  _260
REMARK  108  A    between atoms: _260  and  _261
REMARK  109  A    between atoms: _261  and  _262
REMARK  110  A    between atoms: _262  and  _263
REMARK  111  A    between atoms: _272  and  _274
REMARK  112  A    between atoms: _274  and  _275
REMARK  113  A    between atoms: _274  and  _277
REMARK  114  A    between atoms: _277  and  _278
REMARK  115  A    between atoms: _283  and  _285
REMARK  116  A    between atoms: _285  and  _286
REMARK  117  A    between atoms: _285  and  _288
REMARK  118  A    between atoms: _288  and  _289
REMARK  119  A    between atoms: _289  and  _290
REMARK  120  A    between atoms: _290  and  _291
REMARK  121  A    between atoms: _300  and  _302
REMARK  122  A    between atoms: _302  and  _303
REMARK  123  A    between atoms: _302  and  _305
REMARK  124  A    between atoms: _305  and  _306
REMARK  125  A    between atoms: _309  and  _311
REMARK  126  A    between atoms: _311  and  _312
REMARK  127  A    between atoms: _311  and  _314
REMARK  128  A    between atoms: _314  and  _315
REMARK  129  A    between atoms: _318  and  _320
REMARK  130  A    between atoms: _320  and  _321
REMARK  131  A    between atoms: _320  and  _323
REMARK  132  A    between atoms: _323  and  _324
REMARK  133  A    between atoms: _327  and  _329
REMARK  134  A    between atoms: _329  and  _330
REMARK  135  A    between atoms: _329  and  _332
REMARK  136  A    between atoms: _332  and  _333
REMARK  137  A    between atoms: _336  and  _338
REMARK  138  A    between atoms: _338  and  _339
REMARK  139  A    between atoms: _341  and  _343
REMARK  140  A    between atoms: _343  and  _344
REMARK  141  A    between atoms: _347  and  _349
REMARK  142  A    between atoms: _349  and  _350
REMARK  143  A    between atoms: _349  and  _352
REMARK  144  A    between atoms: _352  and  _353
REMARK  145  A    between atoms: _356  and  _358
REMARK  146  A    between atoms: _358  and  _359
REMARK  147  A    between atoms: _358  and  _361
REMARK  148  A    between atoms: _361  and  _362
REMARK  149  A    between atoms: _365  and  _367
REMARK  150  A    between atoms: _367  and  _368
REMARK  151  A    between atoms: _367  and  _370
REMARK  152  A    between atoms: _370  and  _371
REMARK  153  A    between atoms: _374  and  _376
REMARK  154  A    between atoms: _376  and  _377
REMARK  155  A    between atoms: _376  and  _379
REMARK  156  A    between atoms: _382  and  _384
REMARK  157  A    between atoms: _384  and  _385
REMARK  158  A    between atoms: _384  and  _387
REMARK  159  A    between atoms: _387  and  _388
REMARK  160  A    between atoms: _391  and  _393
REMARK  161  A    between atoms: _393  and  _394
REMARK  162  A    between atoms: _393  and  _396
REMARK  163  A    between atoms: _396  and  _397
REMARK  164  A    between atoms: _397  and  _398
REMARK  165  A    between atoms: _398  and  _399
REMARK  166  A    between atoms: _399  and  _400
REMARK  167  A    between atoms: _404  and  _406
REMARK  168  A    between atoms: _406  and  _407
REMARK  169  A    between atoms: _406  and  _409
REMARK  170  A    between atoms: _409  and  _410
REMARK  171  A    between atoms: _410  and  _411
REMARK  172  A    between atoms: _413  and  _415
REMARK  173  A    between atoms: _415  and  _416
REMARK  174  A    between atoms: _415  and  _418
REMARK  175  A    between atoms: _418  and  _419
REMARK  176  A    between atoms: _422  and  _424
REMARK  177  A    between atoms: _424  and  _425
REMARK  178  A    between atoms: _427  and  _429
REMARK  179  A    between atoms: _429  and  _430
REMARK  180  A    between atoms: _432  and  _434
REMARK  181  A    between atoms: _434  and  _435
REMARK  182  A    between atoms: _434  and  _437
REMARK  183  A    between atoms: _437  and  _438
REMARK  184  A    between atoms: _441  and  _443
REMARK  185  A    between atoms: _443  and  _444
REMARK  186  A    between atoms: _446  and  _448
REMARK  187  A    between atoms: _448  and  _449
REMARK  188  A    between atoms: _451  and  _453
REMARK  189  A    between atoms: _453  and  _454
REMARK  190  A    between atoms: _453  and  _456
REMARK  191  A    between atoms: _456  and  _457
REMARK  192  A    between atoms: _463  and  _465
REMARK  193  A    between atoms: _465  and  _466
REMARK  194  A    between atoms: _465  and  _468
REMARK  195  A    between atoms: _468  and  _469
REMARK  196  A    between atoms: _472  and  _474
REMARK  197  A    between atoms: _474  and  _475
REMARK  198  A    between atoms: _474  and  _477
REMARK  199  A    between atoms: _480  and  _482
REMARK  200  A    between atoms: _482  and  _483
REMARK  201  A    between atoms: _482  and  _485
REMARK  202  A    between atoms: _485  and  _486
REMARK  203  A    between atoms: _489  and  _491
REMARK  204  A    between atoms: _491  and  _492
REMARK  205  A    between atoms: _491  and  _494
REMARK  206  A    between atoms: _494  and  _495
REMARK  207  A    between atoms: _499  and  _500
REMARK  208  A    between atoms: _505  and  _507
REMARK  209  A    between atoms: _507  and  _508
REMARK  210  A    between atoms: _507  and  _510
REMARK  211  A    between atoms: _513  and  _515
REMARK  212  A    between atoms: _515  and  _516
REMARK  213  A    between atoms: _515  and  _518
REMARK  214  A    between atoms: _518  and  _519
REMARK  215  A    between atoms: _524  and  _526
REMARK  216  A    between atoms: _526  and  _527
REMARK  217  A    between atoms: _526  and  _529
REMARK  218  A    between atoms: _529  and  _530
REMARK  219  A    between atoms: _533  and  _535
REMARK  220  A    between atoms: _535  and  _536
REMARK  221  A    between atoms: _535  and  _538
REMARK  222  A    between atoms: _538  and  _539
REMARK  223  A    between atoms: _542  and  _544
REMARK  224  A    between atoms: _544  and  _545
REMARK  225  A    between atoms: _547  and  _549
REMARK  226  A    between atoms: _549  and  _550
REMARK  227  A    between atoms: _549  and  _552
REMARK  228  A    between atoms: _552  and  _553
REMARK  229  A    between atoms: _553  and  _554
REMARK  230  A    between atoms: _554  and  _555
REMARK  231  A    between atoms: _564  and  _566
REMARK  232  A    between atoms: _566  and  _567
REMARK  233  A    between atoms: _566  and  _569
REMARK  234  A    between atoms: _569  and  _570
REMARK                            x       y       z     vdW  Elec       q    Type
REMARK                         _______ _______ _______ _____ _____    ______ ____
ROOT
ATOM      1  O   HOH     1       4.360  25.246   0.823  0.00  0.00    +0.000 OA
ENDROOT
TORSDOF 0
