REMARK  Name = ../refined-set-2016/3old/3old_pocket.pdb
REMARK  264 active torsions:
REMARK  status: ('A' for Active; 'I' for Inactive)
REMARK    1  A    between atoms: _1  and  _3
REMARK    2  A    between atoms: _3  and  _4
REMARK    3  A    between atoms: _3  and  _6
REMARK    4  A    between atoms: _6  and  _7
REMARK    5  A    between atoms: _12  and  _14
REMARK    6  A    between atoms: _14  and  _15
REMARK    7  A    between atoms: _14  and  _17
REMARK    8  A    between atoms: _17  and  _18
REMARK    9  A    between atoms: _24  and  _26
REMARK   10  A    between atoms: _26  and  _27
REMARK   11  A    between atoms: _26  and  _29
REMARK   12  A    between atoms: _29  and  _30
REMARK   13  A    between atoms: _30  and  _31
REMARK   14  A    between atoms: _37  and  _38
REMARK   15  A    between atoms: _43  and  _45
REMARK   16  A    between atoms: _45  and  _46
REMARK   17  A    between atoms: _45  and  _48
REMARK   18  A    between atoms: _48  and  _49
REMARK   19  A    between atoms: _54  and  _56
REMARK   20  A    between atoms: _56  and  _57
REMARK   21  A    between atoms: _56  and  _59
REMARK   22  A    between atoms: _62  and  _64
REMARK   23  A    between atoms: _64  and  _65
REMARK   24  A    between atoms: _64  and  _67
REMARK   25  A    between atoms: _67  and  _68
REMARK   26  A    between atoms: _72  and  _73
REMARK   27  A    between atoms: _79  and  _80
REMARK   28  A    between atoms: _85  and  _87
REMARK   29  A    between atoms: _87  and  _88
REMARK   30  A    between atoms: _87  and  _90
REMARK   31  A    between atoms: _90  and  _91
REMARK   32  A    between atoms: _101  and  _103
REMARK   33  A    between atoms: _103  and  _104
REMARK   34  A    between atoms: _103  and  _106
REMARK   35  A    between atoms: _106  and  _107
REMARK   36  A    between atoms: _117  and  _119
REMARK   37  A    between atoms: _119  and  _120
REMARK   38  A    between atoms: _119  and  _122
REMARK   39  A    between atoms: _122  and  _123
REMARK   40  A    between atoms: _123  and  _124
REMARK   41  A    between atoms: _127  and  _129
REMARK   42  A    between atoms: _129  and  _130
REMARK   43  A    between atoms: _129  and  _132
REMARK   44  A    between atoms: _132  and  _133
REMARK   45  A    between atoms: _133  and  _134
REMARK   46  A    between atoms: _134  and  _135
REMARK   47  A    between atoms: _144  and  _146
REMARK   48  A    between atoms: _146  and  _147
REMARK   49  A    between atoms: _146  and  _149
REMARK   50  A    between atoms: _149  and  _150
REMARK   51  A    between atoms: _155  and  _156
REMARK   52  A    between atoms: _158  and  _160
REMARK   53  A    between atoms: _160  and  _161
REMARK   54  A    between atoms: _160  and  _163
REMARK   55  A    between atoms: _163  and  _164
REMARK   56  A    between atoms: _164  and  _165
REMARK   57  A    between atoms: _171  and  _172
REMARK   58  A    between atoms: _177  and  _179
REMARK   59  A    between atoms: _179  and  _180
REMARK   60  A    between atoms: _179  and  _182
REMARK   61  A    between atoms: _182  and  _183
REMARK   62  A    between atoms: _186  and  _188
REMARK   63  A    between atoms: _188  and  _189
REMARK   64  A    between atoms: _192  and  _194
REMARK   65  A    between atoms: _194  and  _195
REMARK   66  A    between atoms: _194  and  _197
REMARK   67  A    between atoms: _200  and  _202
REMARK   68  A    between atoms: _202  and  _203
REMARK   69  A    between atoms: _202  and  _205
REMARK   70  A    between atoms: _205  and  _206
REMARK   71  A    between atoms: _209  and  _211
REMARK   72  A    between atoms: _211  and  _212
REMARK   73  A    between atoms: _211  and  _214
REMARK   74  A    between atoms: _214  and  _215
REMARK   75  A    between atoms: _220  and  _222
REMARK   76  A    between atoms: _222  and  _223
REMARK   77  A    between atoms: _222  and  _225
REMARK   78  A    between atoms: _225  and  _226
REMARK   79  A    between atoms: _231  and  _233
REMARK   80  A    between atoms: _233  and  _234
REMARK   81  A    between atoms: _233  and  _236
REMARK   82  A    between atoms: _236  and  _237
REMARK   83  A    between atoms: _237  and  _238
REMARK   84  A    between atoms: _240  and  _242
REMARK   85  A    between atoms: _242  and  _243
REMARK   86  A    between atoms: _242  and  _245
REMARK   87  A    between atoms: _247  and  _249
REMARK   88  A    between atoms: _249  and  _250
REMARK   89  A    between atoms: _252  and  _254
REMARK   90  A    between atoms: _254  and  _255
REMARK   91  A    between atoms: _254  and  _257
REMARK   92  A    between atoms: _257  and  _258
REMARK   93  A    between atoms: _263  and  _265
REMARK   94  A    between atoms: _265  and  _266
REMARK   95  A    between atoms: _269  and  _271
REMARK   96  A    between atoms: _271  and  _272
REMARK   97  A    between atoms: _271  and  _274
REMARK   98  A    between atoms: _277  and  _279
REMARK   99  A    between atoms: _279  and  _280
REMARK  100  A    between atoms: _279  and  _282
REMARK  101  A    between atoms: _282  and  _283
REMARK  102  A    between atoms: _286  and  _288
REMARK  103  A    between atoms: _288  and  _289
REMARK  104  A    between atoms: _288  and  _291
REMARK  105  A    between atoms: _291  and  _292
REMARK  106  A    between atoms: _295  and  _297
REMARK  107  A    between atoms: _297  and  _298
REMARK  108  A    between atoms: _297  and  _300
REMARK  109  A    between atoms: _300  and  _301
REMARK  110  A    between atoms: _306  and  _307
REMARK  111  A    between atoms: _309  and  _311
REMARK  112  A    between atoms: _311  and  _312
REMARK  113  A    between atoms: _311  and  _314
REMARK  114  A    between atoms: _317  and  _319
REMARK  115  A    between atoms: _319  and  _320
REMARK  116  A    between atoms: _319  and  _322
REMARK  117  A    between atoms: _322  and  _323
REMARK  118  A    between atoms: _323  and  _324
REMARK  119  A    between atoms: _324  and  _325
REMARK  120  A    between atoms: _334  and  _336
REMARK  121  A    between atoms: _336  and  _337
REMARK  122  A    between atoms: _336  and  _339
REMARK  123  A    between atoms: _339  and  _340
REMARK  124  A    between atoms: _343  and  _345
REMARK  125  A    between atoms: _345  and  _346
REMARK  126  A    between atoms: _345  and  _348
REMARK  127  A    between atoms: _348  and  _349
REMARK  128  A    between atoms: _352  and  _354
REMARK  129  A    between atoms: _354  and  _355
REMARK  130  A    between atoms: _357  and  _359
REMARK  131  A    between atoms: _359  and  _360
REMARK  132  A    between atoms: _359  and  _362
REMARK  133  A    between atoms: _362  and  _363
REMARK  134  A    between atoms: _366  and  _368
REMARK  135  A    between atoms: _368  and  _369
REMARK  136  A    between atoms: _368  and  _371
REMARK  137  A    between atoms: _371  and  _372
REMARK  138  A    between atoms: _375  and  _377
REMARK  139  A    between atoms: _377  and  _378
REMARK  140  A    between atoms: _377  and  _380
REMARK  141  A    between atoms: _380  and  _381
REMARK  142  A    between atoms: _381  and  _382
REMARK  143  A    between atoms: _382  and  _383
REMARK  144  A    between atoms: _392  and  _394
REMARK  145  A    between atoms: _394  and  _395
REMARK  146  A    between atoms: _394  and  _397
REMARK  147  A    between atoms: _397  and  _398
REMARK  148  A    between atoms: _401  and  _403
REMARK  149  A    between atoms: _403  and  _404
REMARK  150  A    between atoms: _403  and  _406
REMARK  151  A    between atoms: _406  and  _407
REMARK  152  A    between atoms: _410  and  _412
REMARK  153  A    between atoms: _412  and  _413
REMARK  154  A    between atoms: _416  and  _418
REMARK  155  A    between atoms: _418  and  _419
REMARK  156  A    between atoms: _418  and  _421
REMARK  157  A    between atoms: _421  and  _422
REMARK  158  A    between atoms: _424  and  _426
REMARK  159  A    between atoms: _426  and  _427
REMARK  160  A    between atoms: _426  and  _429
REMARK  161  A    between atoms: _429  and  _430
REMARK  162  A    between atoms: _430  and  _431
REMARK  163  A    between atoms: _431  and  _432
REMARK  164  A    between atoms: _432  and  _433
REMARK  165  A    between atoms: _437  and  _439
REMARK  166  A    between atoms: _439  and  _440
REMARK  167  A    between atoms: _439  and  _442
REMARK  168  A    between atoms: _442  and  _443
REMARK  169  A    between atoms: _448  and  _450
REMARK  170  A    between atoms: _450  and  _451
REMARK  171  A    between atoms: _450  and  _453
REMARK  172  A    between atoms: _453  and  _454
REMARK  173  A    between atoms: _454  and  _455
REMARK  174  A    between atoms: _457  and  _459
REMARK  175  A    between atoms: _459  and  _460
REMARK  176  A    between atoms: _459  and  _462
REMARK  177  A    between atoms: _462  and  _463
REMARK  178  A    between atoms: _463  and  _464
REMARK  179  A    between atoms: _467  and  _469
REMARK  180  A    between atoms: _469  and  _470
REMARK  181  A    between atoms: _469  and  _472
REMARK  182  A    between atoms: _475  and  _477
REMARK  183  A    between atoms: _477  and  _478
REMARK  184  A    between atoms: _477  and  _480
REMARK  185  A    between atoms: _480  and  _481
REMARK  186  A    between atoms: _484  and  _486
REMARK  187  A    between atoms: _486  and  _487
REMARK  188  A    between atoms: _486  and  _489
REMARK  189  A    between atoms: _489  and  _490
REMARK  190  A    between atoms: _493  and  _495
REMARK  191  A    between atoms: _495  and  _496
REMARK  192  A    between atoms: _495  and  _498
REMARK  193  A    between atoms: _498  and  _499
REMARK  194  A    between atoms: _502  and  _504
REMARK  195  A    between atoms: _504  and  _505
REMARK  196  A    between atoms: _507  and  _509
REMARK  197  A    between atoms: _509  and  _510
REMARK  198  A    between atoms: _512  and  _514
REMARK  199  A    between atoms: _514  and  _515
REMARK  200  A    between atoms: _514  and  _517
REMARK  201  A    between atoms: _517  and  _518
REMARK  202  A    between atoms: _518  and  _519
REMARK  203  A    between atoms: _522  and  _524
REMARK  204  A    between atoms: _524  and  _525
REMARK  205  A    between atoms: _524  and  _527
REMARK  206  A    between atoms: _527  and  _528
REMARK  207  A    between atoms: _531  and  _533
REMARK  208  A    between atoms: _533  and  _534
REMARK  209  A    between atoms: _533  and  _536
REMARK  210  A    between atoms: _536  and  _537
REMARK  211  A    between atoms: _543  and  _545
REMARK  212  A    between atoms: _545  and  _546
REMARK  213  A    between atoms: _549  and  _551
REMARK  214  A    between atoms: _551  and  _552
REMARK  215  A    between atoms: _551  and  _554
REMARK  216  A    between atoms: _554  and  _555
REMARK  217  A    between atoms: _560  and  _562
REMARK  218  A    between atoms: _562  and  _563
REMARK  219  A    between atoms: _562  and  _565
REMARK  220  A    between atoms: _565  and  _566
REMARK  221  A    between atoms: _571  and  _573
REMARK  222  A    between atoms: _573  and  _574
REMARK  223  A    between atoms: _573  and  _576
REMARK  224  A    between atoms: _576  and  _577
REMARK  225  A    between atoms: _580  and  _582
REMARK  226  A    between atoms: _582  and  _583
REMARK  227  A    between atoms: _582  and  _585
REMARK  228  A    between atoms: _585  and  _586
REMARK  229  A    between atoms: _591  and  _593
REMARK  230  A    between atoms: _593  and  _594
REMARK  231  A    between atoms: _593  and  _596
REMARK  232  A    between atoms: _596  and  _597
REMARK  233  A    between atoms: _597  and  _598
REMARK  234  A    between atoms: _598  and  _599
REMARK  235  A    between atoms: _608  and  _610
REMARK  236  A    between atoms: _610  and  _611
REMARK  237  A    between atoms: _613  and  _615
REMARK  238  A    between atoms: _615  and  _616
REMARK  239  A    between atoms: _615  and  _618
REMARK  240  A    between atoms: _618  and  _619
REMARK  241  A    between atoms: _624  and  _626
REMARK  242  A    between atoms: _626  and  _627
REMARK  243  A    between atoms: _629  and  _631
REMARK  244  A    between atoms: _631  and  _632
REMARK  245  A    between atoms: _635  and  _637
REMARK  246  A    between atoms: _637  and  _638
REMARK  247  A    between atoms: _640  and  _642
REMARK  248  A    between atoms: _642  and  _643
REMARK  249  A    between atoms: _645  and  _647
REMARK  250  A    between atoms: _647  and  _648
REMARK  251  A    between atoms: _651  and  _653
REMARK  252  A    between atoms: _653  and  _654
REMARK  253  A    between atoms: _653  and  _656
REMARK  254  A    between atoms: _656  and  _657
REMARK  255  A    between atoms: _657  and  _658
REMARK  256  A    between atoms: _658  and  _659
REMARK  257  A    between atoms: _668  and  _670
REMARK  258  A    between atoms: _670  and  _671
REMARK  259  A    between atoms: _670  and  _673
REMARK  260  A    between atoms: _673  and  _674
REMARK  261  A    between atoms: _677  and  _679
REMARK  262  A    between atoms: _679  and  _680
REMARK  263  A    between atoms: _679  and  _682
REMARK  264  A    between atoms: _682  and  _683
REMARK                            x       y       z     vdW  Elec       q    Type
REMARK                         _______ _______ _______ _____ _____    ______ ____
ROOT
ATOM      1  CB  HIS A   1      11.960  -4.363 -16.263  0.00  0.00    +0.072 C 
ENDROOT
BRANCH   1   2
ATOM      2  CG  HIS A   1      12.712  -5.440 -16.986  0.00  0.00    +0.082 A 
ATOM      3  ND1 HIS A   1      13.928  -5.928 -16.552  0.00  0.00    -0.227 NA
ATOM      4  CE1 HIS A   1      14.328  -6.894 -17.360  0.00  0.00    +0.199 A 
ATOM      5  NE2 HIS A   1      13.417  -7.051 -18.303  0.00  0.00    -0.221 NA
ATOM      6  CD2 HIS A   1      12.397  -6.153 -18.094  0.00  0.00    +0.115 A 
ENDBRANCH   1   2
BRANCH   1   7
ATOM      7  CA  HIS A   1      12.839  -3.461 -15.383  0.00  0.00    +0.139 C 
BRANCH   7   8
ATOM      8  N   HIS A   1      12.019  -2.458 -14.721  0.00  0.00    -0.239 NA
ATOM      9  H   HIS A   1      11.161  -2.104 -15.189  0.00  0.00    +0.142 HD
ENDBRANCH   7   8
BRANCH   7  10
ATOM     10  C   HIS A   1      13.899  -2.754 -16.217  0.00  0.00    +0.224 C 
ATOM     11  O   HIS A   1      13.611  -2.238 -17.292  0.00  0.00    -0.287 OA
ENDBRANCH   7  10
ENDBRANCH   1   7
TORSDOF 4
REMARK  Name = ../refined-set-2016/3old/3old_pocket.pdb
REMARK  264 active torsions:
REMARK  status: ('A' for Active; 'I' for Inactive)
REMARK    1  A    between atoms: _1  and  _3
REMARK    2  A    between atoms: _3  and  _4
REMARK    3  A    between atoms: _3  and  _6
REMARK    4  A    between atoms: _6  and  _7
REMARK    5  A    between atoms: _12  and  _14
REMARK    6  A    between atoms: _14  and  _15
REMARK    7  A    between atoms: _14  and  _17
REMARK    8  A    between atoms: _17  and  _18
REMARK    9  A    between atoms: _24  and  _26
REMARK   10  A    between atoms: _26  and  _27
REMARK   11  A    between atoms: _26  and  _29
REMARK   12  A    between atoms: _29  and  _30
REMARK   13  A    between atoms: _30  and  _31
REMARK   14  A    between atoms: _37  and  _38
REMARK   15  A    between atoms: _43  and  _45
REMARK   16  A    between atoms: _45  and  _46
REMARK   17  A    between atoms: _45  and  _48
REMARK   18  A    between atoms: _48  and  _49
REMARK   19  A    between atoms: _54  and  _56
REMARK   20  A    between atoms: _56  and  _57
REMARK   21  A    between atoms: _56  and  _59
REMARK   22  A    between atoms: _62  and  _64
REMARK   23  A    between atoms: _64  and  _65
REMARK   24  A    between atoms: _64  and  _67
REMARK   25  A    between atoms: _67  and  _68
REMARK   26  A    between atoms: _72  and  _73
REMARK   27  A    between atoms: _79  and  _80
REMARK   28  A    between atoms: _85  and  _87
REMARK   29  A    between atoms: _87  and  _88
REMARK   30  A    between atoms: _87  and  _90
REMARK   31  A    between atoms: _90  and  _91
REMARK   32  A    between atoms: _101  and  _103
REMARK   33  A    between atoms: _103  and  _104
REMARK   34  A    between atoms: _103  and  _106
REMARK   35  A    between atoms: _106  and  _107
REMARK   36  A    between atoms: _117  and  _119
REMARK   37  A    between atoms: _119  and  _120
REMARK   38  A    between atoms: _119  and  _122
REMARK   39  A    between atoms: _122  and  _123
REMARK   40  A    between atoms: _123  and  _124
REMARK   41  A    between atoms: _127  and  _129
REMARK   42  A    between atoms: _129  and  _130
REMARK   43  A    between atoms: _129  and  _132
REMARK   44  A    between atoms: _132  and  _133
REMARK   45  A    between atoms: _133  and  _134
REMARK   46  A    between atoms: _134  and  _135
REMARK   47  A    between atoms: _144  and  _146
REMARK   48  A    between atoms: _146  and  _147
REMARK   49  A    between atoms: _146  and  _149
REMARK   50  A    between atoms: _149  and  _150
REMARK   51  A    between atoms: _155  and  _156
REMARK   52  A    between atoms: _158  and  _160
REMARK   53  A    between atoms: _160  and  _161
REMARK   54  A    between atoms: _160  and  _163
REMARK   55  A    between atoms: _163  and  _164
REMARK   56  A    between atoms: _164  and  _165
REMARK   57  A    between atoms: _171  and  _172
REMARK   58  A    between atoms: _177  and  _179
REMARK   59  A    between atoms: _179  and  _180
REMARK   60  A    between atoms: _179  and  _182
REMARK   61  A    between atoms: _182  and  _183
REMARK   62  A    between atoms: _186  and  _188
REMARK   63  A    between atoms: _188  and  _189
REMARK   64  A    between atoms: _192  and  _194
REMARK   65  A    between atoms: _194  and  _195
REMARK   66  A    between atoms: _194  and  _197
REMARK   67  A    between atoms: _200  and  _202
REMARK   68  A    between atoms: _202  and  _203
REMARK   69  A    between atoms: _202  and  _205
REMARK   70  A    between atoms: _205  and  _206
REMARK   71  A    between atoms: _209  and  _211
REMARK   72  A    between atoms: _211  and  _212
REMARK   73  A    between atoms: _211  and  _214
REMARK   74  A    between atoms: _214  and  _215
REMARK   75  A    between atoms: _220  and  _222
REMARK   76  A    between atoms: _222  and  _223
REMARK   77  A    between atoms: _222  and  _225
REMARK   78  A    between atoms: _225  and  _226
REMARK   79  A    between atoms: _231  and  _233
REMARK   80  A    between atoms: _233  and  _234
REMARK   81  A    between atoms: _233  and  _236
REMARK   82  A    between atoms: _236  and  _237
REMARK   83  A    between atoms: _237  and  _238
REMARK   84  A    between atoms: _240  and  _242
REMARK   85  A    between atoms: _242  and  _243
REMARK   86  A    between atoms: _242  and  _245
REMARK   87  A    between atoms: _247  and  _249
REMARK   88  A    between atoms: _249  and  _250
REMARK   89  A    between atoms: _252  and  _254
REMARK   90  A    between atoms: _254  and  _255
REMARK   91  A    between atoms: _254  and  _257
REMARK   92  A    between atoms: _257  and  _258
REMARK   93  A    between atoms: _263  and  _265
REMARK   94  A    between atoms: _265  and  _266
REMARK   95  A    between atoms: _269  and  _271
REMARK   96  A    between atoms: _271  and  _272
REMARK   97  A    between atoms: _271  and  _274
REMARK   98  A    between atoms: _277  and  _279
REMARK   99  A    between atoms: _279  and  _280
REMARK  100  A    between atoms: _279  and  _282
REMARK  101  A    between atoms: _282  and  _283
REMARK  102  A    between atoms: _286  and  _288
REMARK  103  A    between atoms: _288  and  _289
REMARK  104  A    between atoms: _288  and  _291
REMARK  105  A    between atoms: _291  and  _292
REMARK  106  A    between atoms: _295  and  _297
REMARK  107  A    between atoms: _297  and  _298
REMARK  108  A    between atoms: _297  and  _300
REMARK  109  A    between atoms: _300  and  _301
REMARK  110  A    between atoms: _306  and  _307
REMARK  111  A    between atoms: _309  and  _311
REMARK  112  A    between atoms: _311  and  _312
REMARK  113  A    between atoms: _311  and  _314
REMARK  114  A    between atoms: _317  and  _319
REMARK  115  A    between atoms: _319  and  _320
REMARK  116  A    between atoms: _319  and  _322
REMARK  117  A    between atoms: _322  and  _323
REMARK  118  A    between atoms: _323  and  _324
REMARK  119  A    between atoms: _324  and  _325
REMARK  120  A    between atoms: _334  and  _336
REMARK  121  A    between atoms: _336  and  _337
REMARK  122  A    between atoms: _336  and  _339
REMARK  123  A    between atoms: _339  and  _340
REMARK  124  A    between atoms: _343  and  _345
REMARK  125  A    between atoms: _345  and  _346
REMARK  126  A    between atoms: _345  and  _348
REMARK  127  A    between atoms: _348  and  _349
REMARK  128  A    between atoms: _352  and  _354
REMARK  129  A    between atoms: _354  and  _355
REMARK  130  A    between atoms: _357  and  _359
REMARK  131  A    between atoms: _359  and  _360
REMARK  132  A    between atoms: _359  and  _362
REMARK  133  A    between atoms: _362  and  _363
REMARK  134  A    between atoms: _366  and  _368
REMARK  135  A    between atoms: _368  and  _369
REMARK  136  A    between atoms: _368  and  _371
REMARK  137  A    between atoms: _371  and  _372
REMARK  138  A    between atoms: _375  and  _377
REMARK  139  A    between atoms: _377  and  _378
REMARK  140  A    between atoms: _377  and  _380
REMARK  141  A    between atoms: _380  and  _381
REMARK  142  A    between atoms: _381  and  _382
REMARK  143  A    between atoms: _382  and  _383
REMARK  144  A    between atoms: _392  and  _394
REMARK  145  A    between atoms: _394  and  _395
REMARK  146  A    between atoms: _394  and  _397
REMARK  147  A    between atoms: _397  and  _398
REMARK  148  A    between atoms: _401  and  _403
REMARK  149  A    between atoms: _403  and  _404
REMARK  150  A    between atoms: _403  and  _406
REMARK  151  A    between atoms: _406  and  _407
REMARK  152  A    between atoms: _410  and  _412
REMARK  153  A    between atoms: _412  and  _413
REMARK  154  A    between atoms: _416  and  _418
REMARK  155  A    between atoms: _418  and  _419
REMARK  156  A    between atoms: _418  and  _421
REMARK  157  A    between atoms: _421  and  _422
REMARK  158  A    between atoms: _424  and  _426
REMARK  159  A    between atoms: _426  and  _427
REMARK  160  A    between atoms: _426  and  _429
REMARK  161  A    between atoms: _429  and  _430
REMARK  162  A    between atoms: _430  and  _431
REMARK  163  A    between atoms: _431  and  _432
REMARK  164  A    between atoms: _432  and  _433
REMARK  165  A    between atoms: _437  and  _439
REMARK  166  A    between atoms: _439  and  _440
REMARK  167  A    between atoms: _439  and  _442
REMARK  168  A    between atoms: _442  and  _443
REMARK  169  A    between atoms: _448  and  _450
REMARK  170  A    between atoms: _450  and  _451
REMARK  171  A    between atoms: _450  and  _453
REMARK  172  A    between atoms: _453  and  _454
REMARK  173  A    between atoms: _454  and  _455
REMARK  174  A    between atoms: _457  and  _459
REMARK  175  A    between atoms: _459  and  _460
REMARK  176  A    between atoms: _459  and  _462
REMARK  177  A    between atoms: _462  and  _463
REMARK  178  A    between atoms: _463  and  _464
REMARK  179  A    between atoms: _467  and  _469
REMARK  180  A    between atoms: _469  and  _470
REMARK  181  A    between atoms: _469  and  _472
REMARK  182  A    between atoms: _475  and  _477
REMARK  183  A    between atoms: _477  and  _478
REMARK  184  A    between atoms: _477  and  _480
REMARK  185  A    between atoms: _480  and  _481
REMARK  186  A    between atoms: _484  and  _486
REMARK  187  A    between atoms: _486  and  _487
REMARK  188  A    between atoms: _486  and  _489
REMARK  189  A    between atoms: _489  and  _490
REMARK  190  A    between atoms: _493  and  _495
REMARK  191  A    between atoms: _495  and  _496
REMARK  192  A    between atoms: _495  and  _498
REMARK  193  A    between atoms: _498  and  _499
REMARK  194  A    between atoms: _502  and  _504
REMARK  195  A    between atoms: _504  and  _505
REMARK  196  A    between atoms: _507  and  _509
REMARK  197  A    between atoms: _509  and  _510
REMARK  198  A    between atoms: _512  and  _514
REMARK  199  A    between atoms: _514  and  _515
REMARK  200  A    between atoms: _514  and  _517
REMARK  201  A    between atoms: _517  and  _518
REMARK  202  A    between atoms: _518  and  _519
REMARK  203  A    between atoms: _522  and  _524
REMARK  204  A    between atoms: _524  and  _525
REMARK  205  A    between atoms: _524  and  _527
REMARK  206  A    between atoms: _527  and  _528
REMARK  207  A    between atoms: _531  and  _533
REMARK  208  A    between atoms: _533  and  _534
REMARK  209  A    between atoms: _533  and  _536
REMARK  210  A    between atoms: _536  and  _537
REMARK  211  A    between atoms: _543  and  _545
REMARK  212  A    between atoms: _545  and  _546
REMARK  213  A    between atoms: _549  and  _551
REMARK  214  A    between atoms: _551  and  _552
REMARK  215  A    between atoms: _551  and  _554
REMARK  216  A    between atoms: _554  and  _555
REMARK  217  A    between atoms: _560  and  _562
REMARK  218  A    between atoms: _562  and  _563
REMARK  219  A    between atoms: _562  and  _565
REMARK  220  A    between atoms: _565  and  _566
REMARK  221  A    between atoms: _571  and  _573
REMARK  222  A    between atoms: _573  and  _574
REMARK  223  A    between atoms: _573  and  _576
REMARK  224  A    between atoms: _576  and  _577
REMARK  225  A    between atoms: _580  and  _582
REMARK  226  A    between atoms: _582  and  _583
REMARK  227  A    between atoms: _582  and  _585
REMARK  228  A    between atoms: _585  and  _586
REMARK  229  A    between atoms: _591  and  _593
REMARK  230  A    between atoms: _593  and  _594
REMARK  231  A    between atoms: _593  and  _596
REMARK  232  A    between atoms: _596  and  _597
REMARK  233  A    between atoms: _597  and  _598
REMARK  234  A    between atoms: _598  and  _599
REMARK  235  A    between atoms: _608  and  _610
REMARK  236  A    between atoms: _610  and  _611
REMARK  237  A    between atoms: _613  and  _615
REMARK  238  A    between atoms: _615  and  _616
REMARK  239  A    between atoms: _615  and  _618
REMARK  240  A    between atoms: _618  and  _619
REMARK  241  A    between atoms: _624  and  _626
REMARK  242  A    between atoms: _626  and  _627
REMARK  243  A    between atoms: _629  and  _631
REMARK  244  A    between atoms: _631  and  _632
REMARK  245  A    between atoms: _635  and  _637
REMARK  246  A    between atoms: _637  and  _638
REMARK  247  A    between atoms: _640  and  _642
REMARK  248  A    between atoms: _642  and  _643
REMARK  249  A    between atoms: _645  and  _647
REMARK  250  A    between atoms: _647  and  _648
REMARK  251  A    between atoms: _651  and  _653
REMARK  252  A    between atoms: _653  and  _654
REMARK  253  A    between atoms: _653  and  _656
REMARK  254  A    between atoms: _656  and  _657
REMARK  255  A    between atoms: _657  and  _658
REMARK  256  A    between atoms: _658  and  _659
REMARK  257  A    between atoms: _668  and  _670
REMARK  258  A    between atoms: _670  and  _671
REMARK  259  A    between atoms: _670  and  _673
REMARK  260  A    between atoms: _673  and  _674
REMARK  261  A    between atoms: _677  and  _679
REMARK  262  A    between atoms: _679  and  _680
REMARK  263  A    between atoms: _679  and  _682
REMARK  264  A    between atoms: _682  and  _683
REMARK                            x       y       z     vdW  Elec       q    Type
REMARK                         _______ _______ _______ _____ _____    ______ ____
ROOT
ATOM      1  CB  PHE A   1      15.354  -4.528 -20.378  0.00  0.00    +0.051 C 
ENDROOT
BRANCH   1   2
ATOM      2  CG  PHE A   1      15.481  -5.607 -21.413  0.00  0.00    -0.020 A 
ATOM      3  CD2 PHE A   1      15.666  -6.938 -21.048  0.00  0.00    -0.004 A 
ATOM      4  CE2 PHE A   1      15.709  -7.941 -22.017  0.00  0.00    -0.000 A 
ATOM      5  CZ  PHE A   1      15.566  -7.613 -23.359  0.00  0.00    -0.000 A 
ATOM      6  CE1 PHE A   1      15.384  -6.288 -23.730  0.00  0.00    -0.000 A 
ATOM      7  CD1 PHE A   1      15.344  -5.296 -22.762  0.00  0.00    -0.004 A 
ENDBRANCH   1   2
BRANCH   1   8
ATOM      8  CA  PHE A   1      16.429  -4.559 -19.280  0.00  0.00    +0.137 C 
BRANCH   8   9
ATOM      9  N   PHE A   1      16.107  -3.508 -18.323  0.00  0.00    -0.239 NA
ATOM     10  H   PHE A   1      15.239  -2.960 -18.491  0.00  0.00    +0.142 HD
ENDBRANCH   8   9
BRANCH   8  11
ATOM     11  C   PHE A   1      17.827  -4.471 -19.889  0.00  0.00    +0.224 C 
ATOM     12  O   PHE A   1      18.154  -3.513 -20.592  0.00  0.00    -0.287 OA
ENDBRANCH   8  11
ENDBRANCH   1   8
TORSDOF 4
REMARK  Name = ../refined-set-2016/3old/3old_pocket.pdb
REMARK  264 active torsions:
REMARK  status: ('A' for Active; 'I' for Inactive)
REMARK    1  A    between atoms: _1  and  _3
REMARK    2  A    between atoms: _3  and  _4
REMARK    3  A    between atoms: _3  and  _6
REMARK    4  A    between atoms: _6  and  _7
REMARK    5  A    between atoms: _12  and  _14
REMARK    6  A    between atoms: _14  and  _15
REMARK    7  A    between atoms: _14  and  _17
REMARK    8  A    between atoms: _17  and  _18
REMARK    9  A    between atoms: _24  and  _26
REMARK   10  A    between atoms: _26  and  _27
REMARK   11  A    between atoms: _26  and  _29
REMARK   12  A    between atoms: _29  and  _30
REMARK   13  A    between atoms: _30  and  _31
REMARK   14  A    between atoms: _37  and  _38
REMARK   15  A    between atoms: _43  and  _45
REMARK   16  A    between atoms: _45  and  _46
REMARK   17  A    between atoms: _45  and  _48
REMARK   18  A    between atoms: _48  and  _49
REMARK   19  A    between atoms: _54  and  _56
REMARK   20  A    between atoms: _56  and  _57
REMARK   21  A    between atoms: _56  and  _59
REMARK   22  A    between atoms: _62  and  _64
REMARK   23  A    between atoms: _64  and  _65
REMARK   24  A    between atoms: _64  and  _67
REMARK   25  A    between atoms: _67  and  _68
REMARK   26  A    between atoms: _72  and  _73
REMARK   27  A    between atoms: _79  and  _80
REMARK   28  A    between atoms: _85  and  _87
REMARK   29  A    between atoms: _87  and  _88
REMARK   30  A    between atoms: _87  and  _90
REMARK   31  A    between atoms: _90  and  _91
REMARK   32  A    between atoms: _101  and  _103
REMARK   33  A    between atoms: _103  and  _104
REMARK   34  A    between atoms: _103  and  _106
REMARK   35  A    between atoms: _106  and  _107
REMARK   36  A    between atoms: _117  and  _119
REMARK   37  A    between atoms: _119  and  _120
REMARK   38  A    between atoms: _119  and  _122
REMARK   39  A    between atoms: _122  and  _123
REMARK   40  A    between atoms: _123  and  _124
REMARK   41  A    between atoms: _127  and  _129
REMARK   42  A    between atoms: _129  and  _130
REMARK   43  A    between atoms: _129  and  _132
REMARK   44  A    between atoms: _132  and  _133
REMARK   45  A    between atoms: _133  and  _134
REMARK   46  A    between atoms: _134  and  _135
REMARK   47  A    between atoms: _144  and  _146
REMARK   48  A    between atoms: _146  and  _147
REMARK   49  A    between atoms: _146  and  _149
REMARK   50  A    between atoms: _149  and  _150
REMARK   51  A    between atoms: _155  and  _156
REMARK   52  A    between atoms: _158  and  _160
REMARK   53  A    between atoms: _160  and  _161
REMARK   54  A    between atoms: _160  and  _163
REMARK   55  A    between atoms: _163  and  _164
REMARK   56  A    between atoms: _164  and  _165
REMARK   57  A    between atoms: _171  and  _172
REMARK   58  A    between atoms: _177  and  _179
REMARK   59  A    between atoms: _179  and  _180
REMARK   60  A    between atoms: _179  and  _182
REMARK   61  A    between atoms: _182  and  _183
REMARK   62  A    between atoms: _186  and  _188
REMARK   63  A    between atoms: _188  and  _189
REMARK   64  A    between atoms: _192  and  _194
REMARK   65  A    between atoms: _194  and  _195
REMARK   66  A    between atoms: _194  and  _197
REMARK   67  A    between atoms: _200  and  _202
REMARK   68  A    between atoms: _202  and  _203
REMARK   69  A    between atoms: _202  and  _205
REMARK   70  A    between atoms: _205  and  _206
REMARK   71  A    between atoms: _209  and  _211
REMARK   72  A    between atoms: _211  and  _212
REMARK   73  A    between atoms: _211  and  _214
REMARK   74  A    between atoms: _214  and  _215
REMARK   75  A    between atoms: _220  and  _222
REMARK   76  A    between atoms: _222  and  _223
REMARK   77  A    between atoms: _222  and  _225
REMARK   78  A    between atoms: _225  and  _226
REMARK   79  A    between atoms: _231  and  _233
REMARK   80  A    between atoms: _233  and  _234
REMARK   81  A    between atoms: _233  and  _236
REMARK   82  A    between atoms: _236  and  _237
REMARK   83  A    between atoms: _237  and  _238
REMARK   84  A    between atoms: _240  and  _242
REMARK   85  A    between atoms: _242  and  _243
REMARK   86  A    between atoms: _242  and  _245
REMARK   87  A    between atoms: _247  and  _249
REMARK   88  A    between atoms: _249  and  _250
REMARK   89  A    between atoms: _252  and  _254
REMARK   90  A    between atoms: _254  and  _255
REMARK   91  A    between atoms: _254  and  _257
REMARK   92  A    between atoms: _257  and  _258
REMARK   93  A    between atoms: _263  and  _265
REMARK   94  A    between atoms: _265  and  _266
REMARK   95  A    between atoms: _269  and  _271
REMARK   96  A    between atoms: _271  and  _272
REMARK   97  A    between atoms: _271  and  _274
REMARK   98  A    between atoms: _277  and  _279
REMARK   99  A    between atoms: _279  and  _280
REMARK  100  A    between atoms: _279  and  _282
REMARK  101  A    between atoms: _282  and  _283
REMARK  102  A    between atoms: _286  and  _288
REMARK  103  A    between atoms: _288  and  _289
REMARK  104  A    between atoms: _288  and  _291
REMARK  105  A    between atoms: _291  and  _292
REMARK  106  A    between atoms: _295  and  _297
REMARK  107  A    between atoms: _297  and  _298
REMARK  108  A    between atoms: _297  and  _300
REMARK  109  A    between atoms: _300  and  _301
REMARK  110  A    between atoms: _306  and  _307
REMARK  111  A    between atoms: _309  and  _311
REMARK  112  A    between atoms: _311  and  _312
REMARK  113  A    between atoms: _311  and  _314
REMARK  114  A    between atoms: _317  and  _319
REMARK  115  A    between atoms: _319  and  _320
REMARK  116  A    between atoms: _319  and  _322
REMARK  117  A    between atoms: _322  and  _323
REMARK  118  A    between atoms: _323  and  _324
REMARK  119  A    between atoms: _324  and  _325
REMARK  120  A    between atoms: _334  and  _336
REMARK  121  A    between atoms: _336  and  _337
REMARK  122  A    between atoms: _336  and  _339
REMARK  123  A    between atoms: _339  and  _340
REMARK  124  A    between atoms: _343  and  _345
REMARK  125  A    between atoms: _345  and  _346
REMARK  126  A    between atoms: _345  and  _348
REMARK  127  A    between atoms: _348  and  _349
REMARK  128  A    between atoms: _352  and  _354
REMARK  129  A    between atoms: _354  and  _355
REMARK  130  A    between atoms: _357  and  _359
REMARK  131  A    between atoms: _359  and  _360
REMARK  132  A    between atoms: _359  and  _362
REMARK  133  A    between atoms: _362  and  _363
REMARK  134  A    between atoms: _366  and  _368
REMARK  135  A    between atoms: _368  and  _369
REMARK  136  A    between atoms: _368  and  _371
REMARK  137  A    between atoms: _371  and  _372
REMARK  138  A    between atoms: _375  and  _377
REMARK  139  A    between atoms: _377  and  _378
REMARK  140  A    between atoms: _377  and  _380
REMARK  141  A    between atoms: _380  and  _381
REMARK  142  A    between atoms: _381  and  _382
REMARK  143  A    between atoms: _382  and  _383
REMARK  144  A    between atoms: _392  and  _394
REMARK  145  A    between atoms: _394  and  _395
REMARK  146  A    between atoms: _394  and  _397
REMARK  147  A    between atoms: _397  and  _398
REMARK  148  A    between atoms: _401  and  _403
REMARK  149  A    between atoms: _403  and  _404
REMARK  150  A    between atoms: _403  and  _406
REMARK  151  A    between atoms: _406  and  _407
REMARK  152  A    between atoms: _410  and  _412
REMARK  153  A    between atoms: _412  and  _413
REMARK  154  A    between atoms: _416  and  _418
REMARK  155  A    between atoms: _418  and  _419
REMARK  156  A    between atoms: _418  and  _421
REMARK  157  A    between atoms: _421  and  _422
REMARK  158  A    between atoms: _424  and  _426
REMARK  159  A    between atoms: _426  and  _427
REMARK  160  A    between atoms: _426  and  _429
REMARK  161  A    between atoms: _429  and  _430
REMARK  162  A    between atoms: _430  and  _431
REMARK  163  A    between atoms: _431  and  _432
REMARK  164  A    between atoms: _432  and  _433
REMARK  165  A    between atoms: _437  and  _439
REMARK  166  A    between atoms: _439  and  _440
REMARK  167  A    between atoms: _439  and  _442
REMARK  168  A    between atoms: _442  and  _443
REMARK  169  A    between atoms: _448  and  _450
REMARK  170  A    between atoms: _450  and  _451
REMARK  171  A    between atoms: _450  and  _453
REMARK  172  A    between atoms: _453  and  _454
REMARK  173  A    between atoms: _454  and  _455
REMARK  174  A    between atoms: _457  and  _459
REMARK  175  A    between atoms: _459  and  _460
REMARK  176  A    between atoms: _459  and  _462
REMARK  177  A    between atoms: _462  and  _463
REMARK  178  A    between atoms: _463  and  _464
REMARK  179  A    between atoms: _467  and  _469
REMARK  180  A    between atoms: _469  and  _470
REMARK  181  A    between atoms: _469  and  _472
REMARK  182  A    between atoms: _475  and  _477
REMARK  183  A    between atoms: _477  and  _478
REMARK  184  A    between atoms: _477  and  _480
REMARK  185  A    between atoms: _480  and  _481
REMARK  186  A    between atoms: _484  and  _486
REMARK  187  A    between atoms: _486  and  _487
REMARK  188  A    between atoms: _486  and  _489
REMARK  189  A    between atoms: _489  and  _490
REMARK  190  A    between atoms: _493  and  _495
REMARK  191  A    between atoms: _495  and  _496
REMARK  192  A    between atoms: _495  and  _498
REMARK  193  A    between atoms: _498  and  _499
REMARK  194  A    between atoms: _502  and  _504
REMARK  195  A    between atoms: _504  and  _505
REMARK  196  A    between atoms: _507  and  _509
REMARK  197  A    between atoms: _509  and  _510
REMARK  198  A    between atoms: _512  and  _514
REMARK  199  A    between atoms: _514  and  _515
REMARK  200  A    between atoms: _514  and  _517
REMARK  201  A    between atoms: _517  and  _518
REMARK  202  A    between atoms: _518  and  _519
REMARK  203  A    between atoms: _522  and  _524
REMARK  204  A    between atoms: _524  and  _525
REMARK  205  A    between atoms: _524  and  _527
REMARK  206  A    between atoms: _527  and  _528
REMARK  207  A    between atoms: _531  and  _533
REMARK  208  A    between atoms: _533  and  _534
REMARK  209  A    between atoms: _533  and  _536
REMARK  210  A    between atoms: _536  and  _537
REMARK  211  A    between atoms: _543  and  _545
REMARK  212  A    between atoms: _545  and  _546
REMARK  213  A    between atoms: _549  and  _551
REMARK  214  A    between atoms: _551  and  _552
REMARK  215  A    between atoms: _551  and  _554
REMARK  216  A    between atoms: _554  and  _555
REMARK  217  A    between atoms: _560  and  _562
REMARK  218  A    between atoms: _562  and  _563
REMARK  219  A    between atoms: _562  and  _565
REMARK  220  A    between atoms: _565  and  _566
REMARK  221  A    between atoms: _571  and  _573
REMARK  222  A    between atoms: _573  and  _574
REMARK  223  A    between atoms: _573  and  _576
REMARK  224  A    between atoms: _576  and  _577
REMARK  225  A    between atoms: _580  and  _582
REMARK  226  A    between atoms: _582  and  _583
REMARK  227  A    between atoms: _582  and  _585
REMARK  228  A    between atoms: _585  and  _586
REMARK  229  A    between atoms: _591  and  _593
REMARK  230  A    between atoms: _593  and  _594
REMARK  231  A    between atoms: _593  and  _596
REMARK  232  A    between atoms: _596  and  _597
REMARK  233  A    between atoms: _597  and  _598
REMARK  234  A    between atoms: _598  and  _599
REMARK  235  A    between atoms: _608  and  _610
REMARK  236  A    between atoms: _610  and  _611
REMARK  237  A    between atoms: _613  and  _615
REMARK  238  A    between atoms: _615  and  _616
REMARK  239  A    between atoms: _615  and  _618
REMARK  240  A    between atoms: _618  and  _619
REMARK  241  A    between atoms: _624  and  _626
REMARK  242  A    between atoms: _626  and  _627
REMARK  243  A    between atoms: _629  and  _631
REMARK  244  A    between atoms: _631  and  _632
REMARK  245  A    between atoms: _635  and  _637
REMARK  246  A    between atoms: _637  and  _638
REMARK  247  A    between atoms: _640  and  _642
REMARK  248  A    between atoms: _642  and  _643
REMARK  249  A    between atoms: _645  and  _647
REMARK  250  A    between atoms: _647  and  _648
REMARK  251  A    between atoms: _651  and  _653
REMARK  252  A    between atoms: _653  and  _654
REMARK  253  A    between atoms: _653  and  _656
REMARK  254  A    between atoms: _656  and  _657
REMARK  255  A    between atoms: _657  and  _658
REMARK  256  A    between atoms: _658  and  _659
REMARK  257  A    between atoms: _668  and  _670
REMARK  258  A    between atoms: _670  and  _671
REMARK  259  A    between atoms: _670  and  _673
REMARK  260  A    between atoms: _673  and  _674
REMARK  261  A    between atoms: _677  and  _679
REMARK  262  A    between atoms: _679  and  _680
REMARK  263  A    between atoms: _679  and  _682
REMARK  264  A    between atoms: _682  and  _683
REMARK                            x       y       z     vdW  Elec       q    Type
REMARK                         _______ _______ _______ _____ _____    ______ ____
ROOT
ATOM      1  CB  GLN A   1      13.044  -6.565 -12.677  0.00  0.00    +0.035 C 
ENDROOT
BRANCH   1   2
ATOM      2  CA  GLN A   1      14.298  -6.145 -11.908  0.00  0.00    +0.134 C 
BRANCH   2   3
ATOM      3  N   GLN A   1      14.238  -4.755 -11.478  0.00  0.00    -0.239 NA
ATOM      4  H   GLN A   1      13.713  -4.061 -12.047  0.00  0.00    +0.142 HD
ENDBRANCH   2   3
BRANCH   2   5
ATOM      5  C   GLN A   1      15.491  -6.143 -12.850  0.00  0.00    +0.224 C 
ATOM      6  O   GLN A   1      15.529  -5.362 -13.801  0.00  0.00    -0.287 OA
ENDBRANCH   2   5
ENDBRANCH   1   2
BRANCH   1   7
ATOM      7  CG  GLN A   1      13.151  -7.970 -13.263  0.00  0.00    +0.087 C 
BRANCH   7   8
ATOM      8  CD  GLN A   1      11.972  -8.335 -14.149  0.00  0.00    +0.219 C 
ATOM      9  OE1 GLN A   1      10.820  -8.264 -13.727  0.00  0.00    -0.275 OA
ATOM     10  NE2 GLN A   1      12.259  -8.731 -15.387  0.00  0.00    -0.329 N 
ATOM     11 HE21 GLN A   1      13.249  -8.776 -15.702  0.00  0.00    +0.145 HD
ATOM     12 HE22 GLN A   1      11.493  -8.995 -16.039  0.00  0.00    +0.145 HD
ENDBRANCH   7   8
ENDBRANCH   1   7
TORSDOF 5
REMARK  Name = ../refined-set-2016/3old/3old_pocket.pdb
REMARK  264 active torsions:
REMARK  status: ('A' for Active; 'I' for Inactive)
REMARK    1  A    between atoms: _1  and  _3
REMARK    2  A    between atoms: _3  and  _4
REMARK    3  A    between atoms: _3  and  _6
REMARK    4  A    between atoms: _6  and  _7
REMARK    5  A    between atoms: _12  and  _14
REMARK    6  A    between atoms: _14  and  _15
REMARK    7  A    between atoms: _14  and  _17
REMARK    8  A    between atoms: _17  and  _18
REMARK    9  A    between atoms: _24  and  _26
REMARK   10  A    between atoms: _26  and  _27
REMARK   11  A    between atoms: _26  and  _29
REMARK   12  A    between atoms: _29  and  _30
REMARK   13  A    between atoms: _30  and  _31
REMARK   14  A    between atoms: _37  and  _38
REMARK   15  A    between atoms: _43  and  _45
REMARK   16  A    between atoms: _45  and  _46
REMARK   17  A    between atoms: _45  and  _48
REMARK   18  A    between atoms: _48  and  _49
REMARK   19  A    between atoms: _54  and  _56
REMARK   20  A    between atoms: _56  and  _57
REMARK   21  A    between atoms: _56  and  _59
REMARK   22  A    between atoms: _62  and  _64
REMARK   23  A    between atoms: _64  and  _65
REMARK   24  A    between atoms: _64  and  _67
REMARK   25  A    between atoms: _67  and  _68
REMARK   26  A    between atoms: _72  and  _73
REMARK   27  A    between atoms: _79  and  _80
REMARK   28  A    between atoms: _85  and  _87
REMARK   29  A    between atoms: _87  and  _88
REMARK   30  A    between atoms: _87  and  _90
REMARK   31  A    between atoms: _90  and  _91
REMARK   32  A    between atoms: _101  and  _103
REMARK   33  A    between atoms: _103  and  _104
REMARK   34  A    between atoms: _103  and  _106
REMARK   35  A    between atoms: _106  and  _107
REMARK   36  A    between atoms: _117  and  _119
REMARK   37  A    between atoms: _119  and  _120
REMARK   38  A    between atoms: _119  and  _122
REMARK   39  A    between atoms: _122  and  _123
REMARK   40  A    between atoms: _123  and  _124
REMARK   41  A    between atoms: _127  and  _129
REMARK   42  A    between atoms: _129  and  _130
REMARK   43  A    between atoms: _129  and  _132
REMARK   44  A    between atoms: _132  and  _133
REMARK   45  A    between atoms: _133  and  _134
REMARK   46  A    between atoms: _134  and  _135
REMARK   47  A    between atoms: _144  and  _146
REMARK   48  A    between atoms: _146  and  _147
REMARK   49  A    between atoms: _146  and  _149
REMARK   50  A    between atoms: _149  and  _150
REMARK   51  A    between atoms: _155  and  _156
REMARK   52  A    between atoms: _158  and  _160
REMARK   53  A    between atoms: _160  and  _161
REMARK   54  A    between atoms: _160  and  _163
REMARK   55  A    between atoms: _163  and  _164
REMARK   56  A    between atoms: _164  and  _165
REMARK   57  A    between atoms: _171  and  _172
REMARK   58  A    between atoms: _177  and  _179
REMARK   59  A    between atoms: _179  and  _180
REMARK   60  A    between atoms: _179  and  _182
REMARK   61  A    between atoms: _182  and  _183
REMARK   62  A    between atoms: _186  and  _188
REMARK   63  A    between atoms: _188  and  _189
REMARK   64  A    between atoms: _192  and  _194
REMARK   65  A    between atoms: _194  and  _195
REMARK   66  A    between atoms: _194  and  _197
REMARK   67  A    between atoms: _200  and  _202
REMARK   68  A    between atoms: _202  and  _203
REMARK   69  A    between atoms: _202  and  _205
REMARK   70  A    between atoms: _205  and  _206
REMARK   71  A    between atoms: _209  and  _211
REMARK   72  A    between atoms: _211  and  _212
REMARK   73  A    between atoms: _211  and  _214
REMARK   74  A    between atoms: _214  and  _215
REMARK   75  A    between atoms: _220  and  _222
REMARK   76  A    between atoms: _222  and  _223
REMARK   77  A    between atoms: _222  and  _225
REMARK   78  A    between atoms: _225  and  _226
REMARK   79  A    between atoms: _231  and  _233
REMARK   80  A    between atoms: _233  and  _234
REMARK   81  A    between atoms: _233  and  _236
REMARK   82  A    between atoms: _236  and  _237
REMARK   83  A    between atoms: _237  and  _238
REMARK   84  A    between atoms: _240  and  _242
REMARK   85  A    between atoms: _242  and  _243
REMARK   86  A    between atoms: _242  and  _245
REMARK   87  A    between atoms: _247  and  _249
REMARK   88  A    between atoms: _249  and  _250
REMARK   89  A    between atoms: _252  and  _254
REMARK   90  A    between atoms: _254  and  _255
REMARK   91  A    between atoms: _254  and  _257
REMARK   92  A    between atoms: _257  and  _258
REMARK   93  A    between atoms: _263  and  _265
REMARK   94  A    between atoms: _265  and  _266
REMARK   95  A    between atoms: _269  and  _271
REMARK   96  A    between atoms: _271  and  _272
REMARK   97  A    between atoms: _271  and  _274
REMARK   98  A    between atoms: _277  and  _279
REMARK   99  A    between atoms: _279  and  _280
REMARK  100  A    between atoms: _279  and  _282
REMARK  101  A    between atoms: _282  and  _283
REMARK  102  A    between atoms: _286  and  _288
REMARK  103  A    between atoms: _288  and  _289
REMARK  104  A    between atoms: _288  and  _291
REMARK  105  A    between atoms: _291  and  _292
REMARK  106  A    between atoms: _295  and  _297
REMARK  107  A    between atoms: _297  and  _298
REMARK  108  A    between atoms: _297  and  _300
REMARK  109  A    between atoms: _300  and  _301
REMARK  110  A    between atoms: _306  and  _307
REMARK  111  A    between atoms: _309  and  _311
REMARK  112  A    between atoms: _311  and  _312
REMARK  113  A    between atoms: _311  and  _314
REMARK  114  A    between atoms: _317  and  _319
REMARK  115  A    between atoms: _319  and  _320
REMARK  116  A    between atoms: _319  and  _322
REMARK  117  A    between atoms: _322  and  _323
REMARK  118  A    between atoms: _323  and  _324
REMARK  119  A    between atoms: _324  and  _325
REMARK  120  A    between atoms: _334  and  _336
REMARK  121  A    between atoms: _336  and  _337
REMARK  122  A    between atoms: _336  and  _339
REMARK  123  A    between atoms: _339  and  _340
REMARK  124  A    between atoms: _343  and  _345
REMARK  125  A    between atoms: _345  and  _346
REMARK  126  A    between atoms: _345  and  _348
REMARK  127  A    between atoms: _348  and  _349
REMARK  128  A    between atoms: _352  and  _354
REMARK  129  A    between atoms: _354  and  _355
REMARK  130  A    between atoms: _357  and  _359
REMARK  131  A    between atoms: _359  and  _360
REMARK  132  A    between atoms: _359  and  _362
REMARK  133  A    between atoms: _362  and  _363
REMARK  134  A    between atoms: _366  and  _368
REMARK  135  A    between atoms: _368  and  _369
REMARK  136  A    between atoms: _368  and  _371
REMARK  137  A    between atoms: _371  and  _372
REMARK  138  A    between atoms: _375  and  _377
REMARK  139  A    between atoms: _377  and  _378
REMARK  140  A    between atoms: _377  and  _380
REMARK  141  A    between atoms: _380  and  _381
REMARK  142  A    between atoms: _381  and  _382
REMARK  143  A    between atoms: _382  and  _383
REMARK  144  A    between atoms: _392  and  _394
REMARK  145  A    between atoms: _394  and  _395
REMARK  146  A    between atoms: _394  and  _397
REMARK  147  A    between atoms: _397  and  _398
REMARK  148  A    between atoms: _401  and  _403
REMARK  149  A    between atoms: _403  and  _404
REMARK  150  A    between atoms: _403  and  _406
REMARK  151  A    between atoms: _406  and  _407
REMARK  152  A    between atoms: _410  and  _412
REMARK  153  A    between atoms: _412  and  _413
REMARK  154  A    between atoms: _416  and  _418
REMARK  155  A    between atoms: _418  and  _419
REMARK  156  A    between atoms: _418  and  _421
REMARK  157  A    between atoms: _421  and  _422
REMARK  158  A    between atoms: _424  and  _426
REMARK  159  A    between atoms: _426  and  _427
REMARK  160  A    between atoms: _426  and  _429
REMARK  161  A    between atoms: _429  and  _430
REMARK  162  A    between atoms: _430  and  _431
REMARK  163  A    between atoms: _431  and  _432
REMARK  164  A    between atoms: _432  and  _433
REMARK  165  A    between atoms: _437  and  _439
REMARK  166  A    between atoms: _439  and  _440
REMARK  167  A    between atoms: _439  and  _442
REMARK  168  A    between atoms: _442  and  _443
REMARK  169  A    between atoms: _448  and  _450
REMARK  170  A    between atoms: _450  and  _451
REMARK  171  A    between atoms: _450  and  _453
REMARK  172  A    between atoms: _453  and  _454
REMARK  173  A    between atoms: _454  and  _455
REMARK  174  A    between atoms: _457  and  _459
REMARK  175  A    between atoms: _459  and  _460
REMARK  176  A    between atoms: _459  and  _462
REMARK  177  A    between atoms: _462  and  _463
REMARK  178  A    between atoms: _463  and  _464
REMARK  179  A    between atoms: _467  and  _469
REMARK  180  A    between atoms: _469  and  _470
REMARK  181  A    between atoms: _469  and  _472
REMARK  182  A    between atoms: _475  and  _477
REMARK  183  A    between atoms: _477  and  _478
REMARK  184  A    between atoms: _477  and  _480
REMARK  185  A    between atoms: _480  and  _481
REMARK  186  A    between atoms: _484  and  _486
REMARK  187  A    between atoms: _486  and  _487
REMARK  188  A    between atoms: _486  and  _489
REMARK  189  A    between atoms: _489  and  _490
REMARK  190  A    between atoms: _493  and  _495
REMARK  191  A    between atoms: _495  and  _496
REMARK  192  A    between atoms: _495  and  _498
REMARK  193  A    between atoms: _498  and  _499
REMARK  194  A    between atoms: _502  and  _504
REMARK  195  A    between atoms: _504  and  _505
REMARK  196  A    between atoms: _507  and  _509
REMARK  197  A    between atoms: _509  and  _510
REMARK  198  A    between atoms: _512  and  _514
REMARK  199  A    between atoms: _514  and  _515
REMARK  200  A    between atoms: _514  and  _517
REMARK  201  A    between atoms: _517  and  _518
REMARK  202  A    between atoms: _518  and  _519
REMARK  203  A    between atoms: _522  and  _524
REMARK  204  A    between atoms: _524  and  _525
REMARK  205  A    between atoms: _524  and  _527
REMARK  206  A    between atoms: _527  and  _528
REMARK  207  A    between atoms: _531  and  _533
REMARK  208  A    between atoms: _533  and  _534
REMARK  209  A    between atoms: _533  and  _536
REMARK  210  A    between atoms: _536  and  _537
REMARK  211  A    between atoms: _543  and  _545
REMARK  212  A    between atoms: _545  and  _546
REMARK  213  A    between atoms: _549  and  _551
REMARK  214  A    between atoms: _551  and  _552
REMARK  215  A    between atoms: _551  and  _554
REMARK  216  A    between atoms: _554  and  _555
REMARK  217  A    between atoms: _560  and  _562
REMARK  218  A    between atoms: _562  and  _563
REMARK  219  A    between atoms: _562  and  _565
REMARK  220  A    between atoms: _565  and  _566
REMARK  221  A    between atoms: _571  and  _573
REMARK  222  A    between atoms: _573  and  _574
REMARK  223  A    between atoms: _573  and  _576
REMARK  224  A    between atoms: _576  and  _577
REMARK  225  A    between atoms: _580  and  _582
REMARK  226  A    between atoms: _582  and  _583
REMARK  227  A    between atoms: _582  and  _585
REMARK  228  A    between atoms: _585  and  _586
REMARK  229  A    between atoms: _591  and  _593
REMARK  230  A    between atoms: _593  and  _594
REMARK  231  A    between atoms: _593  and  _596
REMARK  232  A    between atoms: _596  and  _597
REMARK  233  A    between atoms: _597  and  _598
REMARK  234  A    between atoms: _598  and  _599
REMARK  235  A    between atoms: _608  and  _610
REMARK  236  A    between atoms: _610  and  _611
REMARK  237  A    between atoms: _613  and  _615
REMARK  238  A    between atoms: _615  and  _616
REMARK  239  A    between atoms: _615  and  _618
REMARK  240  A    between atoms: _618  and  _619
REMARK  241  A    between atoms: _624  and  _626
REMARK  242  A    between atoms: _626  and  _627
REMARK  243  A    between atoms: _629  and  _631
REMARK  244  A    between atoms: _631  and  _632
REMARK  245  A    between atoms: _635  and  _637
REMARK  246  A    between atoms: _637  and  _638
REMARK  247  A    between atoms: _640  and  _642
REMARK  248  A    between atoms: _642  and  _643
REMARK  249  A    between atoms: _645  and  _647
REMARK  250  A    between atoms: _647  and  _648
REMARK  251  A    between atoms: _651  and  _653
REMARK  252  A    between atoms: _653  and  _654
REMARK  253  A    between atoms: _653  and  _656
REMARK  254  A    between atoms: _656  and  _657
REMARK  255  A    between atoms: _657  and  _658
REMARK  256  A    between atoms: _658  and  _659
REMARK  257  A    between atoms: _668  and  _670
REMARK  258  A    between atoms: _670  and  _671
REMARK  259  A    between atoms: _670  and  _673
REMARK  260  A    between atoms: _673  and  _674
REMARK  261  A    between atoms: _677  and  _679
REMARK  262  A    between atoms: _679  and  _680
REMARK  263  A    between atoms: _679  and  _682
REMARK  264  A    between atoms: _682  and  _683
REMARK                            x       y       z     vdW  Elec       q    Type
REMARK                         _______ _______ _______ _____ _____    ______ ____
ROOT
ATOM      1  N   PRO A   1      19.027 -11.703 -16.103  0.00  0.00    -0.212 NA
ATOM      2  CA  PRO A   1      19.699 -12.844 -15.468  0.00  0.00    +0.137 C 
ATOM      3  CB  PRO A   1      19.512 -13.964 -16.489  0.00  0.00    +0.027 C 
ATOM      4  CG  PRO A   1      18.180 -13.619 -17.107  0.00  0.00    +0.021 C 
ATOM      5  CD  PRO A   1      18.312 -12.127 -17.322  0.00  0.00    +0.089 C 
ENDROOT
BRANCH   2   6
ATOM      6  C   PRO A   1      21.175 -12.545 -15.186  0.00  0.00    +0.224 C 
ATOM      7  O   PRO A   1      21.929 -12.196 -16.094  0.00  0.00    -0.287 OA
ENDBRANCH   2   6
TORSDOF 1
REMARK  Name = ../refined-set-2016/3old/3old_pocket.pdb
REMARK  264 active torsions:
REMARK  status: ('A' for Active; 'I' for Inactive)
REMARK    1  A    between atoms: _1  and  _3
REMARK    2  A    between atoms: _3  and  _4
REMARK    3  A    between atoms: _3  and  _6
REMARK    4  A    between atoms: _6  and  _7
REMARK    5  A    between atoms: _12  and  _14
REMARK    6  A    between atoms: _14  and  _15
REMARK    7  A    between atoms: _14  and  _17
REMARK    8  A    between atoms: _17  and  _18
REMARK    9  A    between atoms: _24  and  _26
REMARK   10  A    between atoms: _26  and  _27
REMARK   11  A    between atoms: _26  and  _29
REMARK   12  A    between atoms: _29  and  _30
REMARK   13  A    between atoms: _30  and  _31
REMARK   14  A    between atoms: _37  and  _38
REMARK   15  A    between atoms: _43  and  _45
REMARK   16  A    between atoms: _45  and  _46
REMARK   17  A    between atoms: _45  and  _48
REMARK   18  A    between atoms: _48  and  _49
REMARK   19  A    between atoms: _54  and  _56
REMARK   20  A    between atoms: _56  and  _57
REMARK   21  A    between atoms: _56  and  _59
REMARK   22  A    between atoms: _62  and  _64
REMARK   23  A    between atoms: _64  and  _65
REMARK   24  A    between atoms: _64  and  _67
REMARK   25  A    between atoms: _67  and  _68
REMARK   26  A    between atoms: _72  and  _73
REMARK   27  A    between atoms: _79  and  _80
REMARK   28  A    between atoms: _85  and  _87
REMARK   29  A    between atoms: _87  and  _88
REMARK   30  A    between atoms: _87  and  _90
REMARK   31  A    between atoms: _90  and  _91
REMARK   32  A    between atoms: _101  and  _103
REMARK   33  A    between atoms: _103  and  _104
REMARK   34  A    between atoms: _103  and  _106
REMARK   35  A    between atoms: _106  and  _107
REMARK   36  A    between atoms: _117  and  _119
REMARK   37  A    between atoms: _119  and  _120
REMARK   38  A    between atoms: _119  and  _122
REMARK   39  A    between atoms: _122  and  _123
REMARK   40  A    between atoms: _123  and  _124
REMARK   41  A    between atoms: _127  and  _129
REMARK   42  A    between atoms: _129  and  _130
REMARK   43  A    between atoms: _129  and  _132
REMARK   44  A    between atoms: _132  and  _133
REMARK   45  A    between atoms: _133  and  _134
REMARK   46  A    between atoms: _134  and  _135
REMARK   47  A    between atoms: _144  and  _146
REMARK   48  A    between atoms: _146  and  _147
REMARK   49  A    between atoms: _146  and  _149
REMARK   50  A    between atoms: _149  and  _150
REMARK   51  A    between atoms: _155  and  _156
REMARK   52  A    between atoms: _158  and  _160
REMARK   53  A    between atoms: _160  and  _161
REMARK   54  A    between atoms: _160  and  _163
REMARK   55  A    between atoms: _163  and  _164
REMARK   56  A    between atoms: _164  and  _165
REMARK   57  A    between atoms: _171  and  _172
REMARK   58  A    between atoms: _177  and  _179
REMARK   59  A    between atoms: _179  and  _180
REMARK   60  A    between atoms: _179  and  _182
REMARK   61  A    between atoms: _182  and  _183
REMARK   62  A    between atoms: _186  and  _188
REMARK   63  A    between atoms: _188  and  _189
REMARK   64  A    between atoms: _192  and  _194
REMARK   65  A    between atoms: _194  and  _195
REMARK   66  A    between atoms: _194  and  _197
REMARK   67  A    between atoms: _200  and  _202
REMARK   68  A    between atoms: _202  and  _203
REMARK   69  A    between atoms: _202  and  _205
REMARK   70  A    between atoms: _205  and  _206
REMARK   71  A    between atoms: _209  and  _211
REMARK   72  A    between atoms: _211  and  _212
REMARK   73  A    between atoms: _211  and  _214
REMARK   74  A    between atoms: _214  and  _215
REMARK   75  A    between atoms: _220  and  _222
REMARK   76  A    between atoms: _222  and  _223
REMARK   77  A    between atoms: _222  and  _225
REMARK   78  A    between atoms: _225  and  _226
REMARK   79  A    between atoms: _231  and  _233
REMARK   80  A    between atoms: _233  and  _234
REMARK   81  A    between atoms: _233  and  _236
REMARK   82  A    between atoms: _236  and  _237
REMARK   83  A    between atoms: _237  and  _238
REMARK   84  A    between atoms: _240  and  _242
REMARK   85  A    between atoms: _242  and  _243
REMARK   86  A    between atoms: _242  and  _245
REMARK   87  A    between atoms: _247  and  _249
REMARK   88  A    between atoms: _249  and  _250
REMARK   89  A    between atoms: _252  and  _254
REMARK   90  A    between atoms: _254  and  _255
REMARK   91  A    between atoms: _254  and  _257
REMARK   92  A    between atoms: _257  and  _258
REMARK   93  A    between atoms: _263  and  _265
REMARK   94  A    between atoms: _265  and  _266
REMARK   95  A    between atoms: _269  and  _271
REMARK   96  A    between atoms: _271  and  _272
REMARK   97  A    between atoms: _271  and  _274
REMARK   98  A    between atoms: _277  and  _279
REMARK   99  A    between atoms: _279  and  _280
REMARK  100  A    between atoms: _279  and  _282
REMARK  101  A    between atoms: _282  and  _283
REMARK  102  A    between atoms: _286  and  _288
REMARK  103  A    between atoms: _288  and  _289
REMARK  104  A    between atoms: _288  and  _291
REMARK  105  A    between atoms: _291  and  _292
REMARK  106  A    between atoms: _295  and  _297
REMARK  107  A    between atoms: _297  and  _298
REMARK  108  A    between atoms: _297  and  _300
REMARK  109  A    between atoms: _300  and  _301
REMARK  110  A    between atoms: _306  and  _307
REMARK  111  A    between atoms: _309  and  _311
REMARK  112  A    between atoms: _311  and  _312
REMARK  113  A    between atoms: _311  and  _314
REMARK  114  A    between atoms: _317  and  _319
REMARK  115  A    between atoms: _319  and  _320
REMARK  116  A    between atoms: _319  and  _322
REMARK  117  A    between atoms: _322  and  _323
REMARK  118  A    between atoms: _323  and  _324
REMARK  119  A    between atoms: _324  and  _325
REMARK  120  A    between atoms: _334  and  _336
REMARK  121  A    between atoms: _336  and  _337
REMARK  122  A    between atoms: _336  and  _339
REMARK  123  A    between atoms: _339  and  _340
REMARK  124  A    between atoms: _343  and  _345
REMARK  125  A    between atoms: _345  and  _346
REMARK  126  A    between atoms: _345  and  _348
REMARK  127  A    between atoms: _348  and  _349
REMARK  128  A    between atoms: _352  and  _354
REMARK  129  A    between atoms: _354  and  _355
REMARK  130  A    between atoms: _357  and  _359
REMARK  131  A    between atoms: _359  and  _360
REMARK  132  A    between atoms: _359  and  _362
REMARK  133  A    between atoms: _362  and  _363
REMARK  134  A    between atoms: _366  and  _368
REMARK  135  A    between atoms: _368  and  _369
REMARK  136  A    between atoms: _368  and  _371
REMARK  137  A    between atoms: _371  and  _372
REMARK  138  A    between atoms: _375  and  _377
REMARK  139  A    between atoms: _377  and  _378
REMARK  140  A    between atoms: _377  and  _380
REMARK  141  A    between atoms: _380  and  _381
REMARK  142  A    between atoms: _381  and  _382
REMARK  143  A    between atoms: _382  and  _383
REMARK  144  A    between atoms: _392  and  _394
REMARK  145  A    between atoms: _394  and  _395
REMARK  146  A    between atoms: _394  and  _397
REMARK  147  A    between atoms: _397  and  _398
REMARK  148  A    between atoms: _401  and  _403
REMARK  149  A    between atoms: _403  and  _404
REMARK  150  A    between atoms: _403  and  _406
REMARK  151  A    between atoms: _406  and  _407
REMARK  152  A    between atoms: _410  and  _412
REMARK  153  A    between atoms: _412  and  _413
REMARK  154  A    between atoms: _416  and  _418
REMARK  155  A    between atoms: _418  and  _419
REMARK  156  A    between atoms: _418  and  _421
REMARK  157  A    between atoms: _421  and  _422
REMARK  158  A    between atoms: _424  and  _426
REMARK  159  A    between atoms: _426  and  _427
REMARK  160  A    between atoms: _426  and  _429
REMARK  161  A    between atoms: _429  and  _430
REMARK  162  A    between atoms: _430  and  _431
REMARK  163  A    between atoms: _431  and  _432
REMARK  164  A    between atoms: _432  and  _433
REMARK  165  A    between atoms: _437  and  _439
REMARK  166  A    between atoms: _439  and  _440
REMARK  167  A    between atoms: _439  and  _442
REMARK  168  A    between atoms: _442  and  _443
REMARK  169  A    between atoms: _448  and  _450
REMARK  170  A    between atoms: _450  and  _451
REMARK  171  A    between atoms: _450  and  _453
REMARK  172  A    between atoms: _453  and  _454
REMARK  173  A    between atoms: _454  and  _455
REMARK  174  A    between atoms: _457  and  _459
REMARK  175  A    between atoms: _459  and  _460
REMARK  176  A    between atoms: _459  and  _462
REMARK  177  A    between atoms: _462  and  _463
REMARK  178  A    between atoms: _463  and  _464
REMARK  179  A    between atoms: _467  and  _469
REMARK  180  A    between atoms: _469  and  _470
REMARK  181  A    between atoms: _469  and  _472
REMARK  182  A    between atoms: _475  and  _477
REMARK  183  A    between atoms: _477  and  _478
REMARK  184  A    between atoms: _477  and  _480
REMARK  185  A    between atoms: _480  and  _481
REMARK  186  A    between atoms: _484  and  _486
REMARK  187  A    between atoms: _486  and  _487
REMARK  188  A    between atoms: _486  and  _489
REMARK  189  A    between atoms: _489  and  _490
REMARK  190  A    between atoms: _493  and  _495
REMARK  191  A    between atoms: _495  and  _496
REMARK  192  A    between atoms: _495  and  _498
REMARK  193  A    between atoms: _498  and  _499
REMARK  194  A    between atoms: _502  and  _504
REMARK  195  A    between atoms: _504  and  _505
REMARK  196  A    between atoms: _507  and  _509
REMARK  197  A    between atoms: _509  and  _510
REMARK  198  A    between atoms: _512  and  _514
REMARK  199  A    between atoms: _514  and  _515
REMARK  200  A    between atoms: _514  and  _517
REMARK  201  A    between atoms: _517  and  _518
REMARK  202  A    between atoms: _518  and  _519
REMARK  203  A    between atoms: _522  and  _524
REMARK  204  A    between atoms: _524  and  _525
REMARK  205  A    between atoms: _524  and  _527
REMARK  206  A    between atoms: _527  and  _528
REMARK  207  A    between atoms: _531  and  _533
REMARK  208  A    between atoms: _533  and  _534
REMARK  209  A    between atoms: _533  and  _536
REMARK  210  A    between atoms: _536  and  _537
REMARK  211  A    between atoms: _543  and  _545
REMARK  212  A    between atoms: _545  and  _546
REMARK  213  A    between atoms: _549  and  _551
REMARK  214  A    between atoms: _551  and  _552
REMARK  215  A    between atoms: _551  and  _554
REMARK  216  A    between atoms: _554  and  _555
REMARK  217  A    between atoms: _560  and  _562
REMARK  218  A    between atoms: _562  and  _563
REMARK  219  A    between atoms: _562  and  _565
REMARK  220  A    between atoms: _565  and  _566
REMARK  221  A    between atoms: _571  and  _573
REMARK  222  A    between atoms: _573  and  _574
REMARK  223  A    between atoms: _573  and  _576
REMARK  224  A    between atoms: _576  and  _577
REMARK  225  A    between atoms: _580  and  _582
REMARK  226  A    between atoms: _582  and  _583
REMARK  227  A    between atoms: _582  and  _585
REMARK  228  A    between atoms: _585  and  _586
REMARK  229  A    between atoms: _591  and  _593
REMARK  230  A    between atoms: _593  and  _594
REMARK  231  A    between atoms: _593  and  _596
REMARK  232  A    between atoms: _596  and  _597
REMARK  233  A    between atoms: _597  and  _598
REMARK  234  A    between atoms: _598  and  _599
REMARK  235  A    between atoms: _608  and  _610
REMARK  236  A    between atoms: _610  and  _611
REMARK  237  A    between atoms: _613  and  _615
REMARK  238  A    between atoms: _615  and  _616
REMARK  239  A    between atoms: _615  and  _618
REMARK  240  A    between atoms: _618  and  _619
REMARK  241  A    between atoms: _624  and  _626
REMARK  242  A    between atoms: _626  and  _627
REMARK  243  A    between atoms: _629  and  _631
REMARK  244  A    between atoms: _631  and  _632
REMARK  245  A    between atoms: _635  and  _637
REMARK  246  A    between atoms: _637  and  _638
REMARK  247  A    between atoms: _640  and  _642
REMARK  248  A    between atoms: _642  and  _643
REMARK  249  A    between atoms: _645  and  _647
REMARK  250  A    between atoms: _647  and  _648
REMARK  251  A    between atoms: _651  and  _653
REMARK  252  A    between atoms: _653  and  _654
REMARK  253  A    between atoms: _653  and  _656
REMARK  254  A    between atoms: _656  and  _657
REMARK  255  A    between atoms: _657  and  _658
REMARK  256  A    between atoms: _658  and  _659
REMARK  257  A    between atoms: _668  and  _670
REMARK  258  A    between atoms: _670  and  _671
REMARK  259  A    between atoms: _670  and  _673
REMARK  260  A    between atoms: _673  and  _674
REMARK  261  A    between atoms: _677  and  _679
REMARK  262  A    between atoms: _679  and  _680
REMARK  263  A    between atoms: _679  and  _682
REMARK  264  A    between atoms: _682  and  _683
REMARK                            x       y       z     vdW  Elec       q    Type
REMARK                         _______ _______ _______ _____ _____    ______ ____
ROOT
ATOM      1  C   ASN A   1      25.694 -18.037 -21.427  0.00  0.00    +0.239 C 
ATOM      2  O   ASN A   1      26.870 -17.695 -21.554  0.00  0.00    -0.274 OA
ATOM      3  N   VAL A   2      25.016 -18.673 -22.374  0.00  0.00    -0.298 N 
ATOM      4  H   VAL A   2      24.027 -18.941 -22.196  0.00  0.00    +0.150 HD
ENDROOT
BRANCH   1   5
ATOM      5  CA  ASN A   1      24.915 -17.747 -20.154  0.00  0.00    +0.154 C 
BRANCH   5   6
ATOM      6  N   ASN A   1      25.742 -17.242 -19.073  0.00  0.00    -0.238 NA
ATOM      7  H   ASN A   1      26.403 -16.460 -19.254  0.00  0.00    +0.142 HD
ENDBRANCH   5   6
BRANCH   5   8
ATOM      8  CB  ASN A   1      23.806 -16.749 -20.473  0.00  0.00    +0.111 C 
BRANCH   8   9
ATOM      9  CG  ASN A   1      24.346 -15.420 -20.961  0.00  0.00    +0.221 C 
ATOM     10  OD1 ASN A   1      24.566 -14.503 -20.174  0.00  0.00    -0.275 OA
ATOM     11  ND2 ASN A   1      24.575 -15.318 -22.268  0.00  0.00    -0.329 N 
ATOM     12 HD21 ASN A   1      24.956 -14.434 -22.662  0.00  0.00    +0.145 HD
ATOM     13 HD22 ASN A   1      24.373 -16.122 -22.896  0.00  0.00    +0.145 HD
ENDBRANCH   8   9
ENDBRANCH   5   8
ENDBRANCH   1   5
BRANCH   3  14
ATOM     14  CA  VAL A   2      25.619 -19.005 -23.654  0.00  0.00    +0.137 C 
BRANCH  14  15
ATOM     15  CB  VAL A   2      24.684 -19.896 -24.500  0.00  0.00    +0.026 C 
ATOM     16  CG2 VAL A   2      24.474 -21.240 -23.814  0.00  0.00    +0.002 C 
ATOM     17  CG1 VAL A   2      25.272 -20.094 -25.891  0.00  0.00    +0.002 C 
ENDBRANCH  14  15
BRANCH  14  18
ATOM     18  C   VAL A   2      25.905 -17.734 -24.450  0.00  0.00    +0.227 C 
ATOM     19  O   VAL A   2      25.061 -16.835 -24.525  0.00  0.00    -0.286 OA
ENDBRANCH  14  18
ENDBRANCH   3  14
TORSDOF 7
REMARK  Name = ../refined-set-2016/3old/3old_pocket.pdb
REMARK  264 active torsions:
REMARK  status: ('A' for Active; 'I' for Inactive)
REMARK    1  A    between atoms: _1  and  _3
REMARK    2  A    between atoms: _3  and  _4
REMARK    3  A    between atoms: _3  and  _6
REMARK    4  A    between atoms: _6  and  _7
REMARK    5  A    between atoms: _12  and  _14
REMARK    6  A    between atoms: _14  and  _15
REMARK    7  A    between atoms: _14  and  _17
REMARK    8  A    between atoms: _17  and  _18
REMARK    9  A    between atoms: _24  and  _26
REMARK   10  A    between atoms: _26  and  _27
REMARK   11  A    between atoms: _26  and  _29
REMARK   12  A    between atoms: _29  and  _30
REMARK   13  A    between atoms: _30  and  _31
REMARK   14  A    between atoms: _37  and  _38
REMARK   15  A    between atoms: _43  and  _45
REMARK   16  A    between atoms: _45  and  _46
REMARK   17  A    between atoms: _45  and  _48
REMARK   18  A    between atoms: _48  and  _49
REMARK   19  A    between atoms: _54  and  _56
REMARK   20  A    between atoms: _56  and  _57
REMARK   21  A    between atoms: _56  and  _59
REMARK   22  A    between atoms: _62  and  _64
REMARK   23  A    between atoms: _64  and  _65
REMARK   24  A    between atoms: _64  and  _67
REMARK   25  A    between atoms: _67  and  _68
REMARK   26  A    between atoms: _72  and  _73
REMARK   27  A    between atoms: _79  and  _80
REMARK   28  A    between atoms: _85  and  _87
REMARK   29  A    between atoms: _87  and  _88
REMARK   30  A    between atoms: _87  and  _90
REMARK   31  A    between atoms: _90  and  _91
REMARK   32  A    between atoms: _101  and  _103
REMARK   33  A    between atoms: _103  and  _104
REMARK   34  A    between atoms: _103  and  _106
REMARK   35  A    between atoms: _106  and  _107
REMARK   36  A    between atoms: _117  and  _119
REMARK   37  A    between atoms: _119  and  _120
REMARK   38  A    between atoms: _119  and  _122
REMARK   39  A    between atoms: _122  and  _123
REMARK   40  A    between atoms: _123  and  _124
REMARK   41  A    between atoms: _127  and  _129
REMARK   42  A    between atoms: _129  and  _130
REMARK   43  A    between atoms: _129  and  _132
REMARK   44  A    between atoms: _132  and  _133
REMARK   45  A    between atoms: _133  and  _134
REMARK   46  A    between atoms: _134  and  _135
REMARK   47  A    between atoms: _144  and  _146
REMARK   48  A    between atoms: _146  and  _147
REMARK   49  A    between atoms: _146  and  _149
REMARK   50  A    between atoms: _149  and  _150
REMARK   51  A    between atoms: _155  and  _156
REMARK   52  A    between atoms: _158  and  _160
REMARK   53  A    between atoms: _160  and  _161
REMARK   54  A    between atoms: _160  and  _163
REMARK   55  A    between atoms: _163  and  _164
REMARK   56  A    between atoms: _164  and  _165
REMARK   57  A    between atoms: _171  and  _172
REMARK   58  A    between atoms: _177  and  _179
REMARK   59  A    between atoms: _179  and  _180
REMARK   60  A    between atoms: _179  and  _182
REMARK   61  A    between atoms: _182  and  _183
REMARK   62  A    between atoms: _186  and  _188
REMARK   63  A    between atoms: _188  and  _189
REMARK   64  A    between atoms: _192  and  _194
REMARK   65  A    between atoms: _194  and  _195
REMARK   66  A    between atoms: _194  and  _197
REMARK   67  A    between atoms: _200  and  _202
REMARK   68  A    between atoms: _202  and  _203
REMARK   69  A    between atoms: _202  and  _205
REMARK   70  A    between atoms: _205  and  _206
REMARK   71  A    between atoms: _209  and  _211
REMARK   72  A    between atoms: _211  and  _212
REMARK   73  A    between atoms: _211  and  _214
REMARK   74  A    between atoms: _214  and  _215
REMARK   75  A    between atoms: _220  and  _222
REMARK   76  A    between atoms: _222  and  _223
REMARK   77  A    between atoms: _222  and  _225
REMARK   78  A    between atoms: _225  and  _226
REMARK   79  A    between atoms: _231  and  _233
REMARK   80  A    between atoms: _233  and  _234
REMARK   81  A    between atoms: _233  and  _236
REMARK   82  A    between atoms: _236  and  _237
REMARK   83  A    between atoms: _237  and  _238
REMARK   84  A    between atoms: _240  and  _242
REMARK   85  A    between atoms: _242  and  _243
REMARK   86  A    between atoms: _242  and  _245
REMARK   87  A    between atoms: _247  and  _249
REMARK   88  A    between atoms: _249  and  _250
REMARK   89  A    between atoms: _252  and  _254
REMARK   90  A    between atoms: _254  and  _255
REMARK   91  A    between atoms: _254  and  _257
REMARK   92  A    between atoms: _257  and  _258
REMARK   93  A    between atoms: _263  and  _265
REMARK   94  A    between atoms: _265  and  _266
REMARK   95  A    between atoms: _269  and  _271
REMARK   96  A    between atoms: _271  and  _272
REMARK   97  A    between atoms: _271  and  _274
REMARK   98  A    between atoms: _277  and  _279
REMARK   99  A    between atoms: _279  and  _280
REMARK  100  A    between atoms: _279  and  _282
REMARK  101  A    between atoms: _282  and  _283
REMARK  102  A    between atoms: _286  and  _288
REMARK  103  A    between atoms: _288  and  _289
REMARK  104  A    between atoms: _288  and  _291
REMARK  105  A    between atoms: _291  and  _292
REMARK  106  A    between atoms: _295  and  _297
REMARK  107  A    between atoms: _297  and  _298
REMARK  108  A    between atoms: _297  and  _300
REMARK  109  A    between atoms: _300  and  _301
REMARK  110  A    between atoms: _306  and  _307
REMARK  111  A    between atoms: _309  and  _311
REMARK  112  A    between atoms: _311  and  _312
REMARK  113  A    between atoms: _311  and  _314
REMARK  114  A    between atoms: _317  and  _319
REMARK  115  A    between atoms: _319  and  _320
REMARK  116  A    between atoms: _319  and  _322
REMARK  117  A    between atoms: _322  and  _323
REMARK  118  A    between atoms: _323  and  _324
REMARK  119  A    between atoms: _324  and  _325
REMARK  120  A    between atoms: _334  and  _336
REMARK  121  A    between atoms: _336  and  _337
REMARK  122  A    between atoms: _336  and  _339
REMARK  123  A    between atoms: _339  and  _340
REMARK  124  A    between atoms: _343  and  _345
REMARK  125  A    between atoms: _345  and  _346
REMARK  126  A    between atoms: _345  and  _348
REMARK  127  A    between atoms: _348  and  _349
REMARK  128  A    between atoms: _352  and  _354
REMARK  129  A    between atoms: _354  and  _355
REMARK  130  A    between atoms: _357  and  _359
REMARK  131  A    between atoms: _359  and  _360
REMARK  132  A    between atoms: _359  and  _362
REMARK  133  A    between atoms: _362  and  _363
REMARK  134  A    between atoms: _366  and  _368
REMARK  135  A    between atoms: _368  and  _369
REMARK  136  A    between atoms: _368  and  _371
REMARK  137  A    between atoms: _371  and  _372
REMARK  138  A    between atoms: _375  and  _377
REMARK  139  A    between atoms: _377  and  _378
REMARK  140  A    between atoms: _377  and  _380
REMARK  141  A    between atoms: _380  and  _381
REMARK  142  A    between atoms: _381  and  _382
REMARK  143  A    between atoms: _382  and  _383
REMARK  144  A    between atoms: _392  and  _394
REMARK  145  A    between atoms: _394  and  _395
REMARK  146  A    between atoms: _394  and  _397
REMARK  147  A    between atoms: _397  and  _398
REMARK  148  A    between atoms: _401  and  _403
REMARK  149  A    between atoms: _403  and  _404
REMARK  150  A    between atoms: _403  and  _406
REMARK  151  A    between atoms: _406  and  _407
REMARK  152  A    between atoms: _410  and  _412
REMARK  153  A    between atoms: _412  and  _413
REMARK  154  A    between atoms: _416  and  _418
REMARK  155  A    between atoms: _418  and  _419
REMARK  156  A    between atoms: _418  and  _421
REMARK  157  A    between atoms: _421  and  _422
REMARK  158  A    between atoms: _424  and  _426
REMARK  159  A    between atoms: _426  and  _427
REMARK  160  A    between atoms: _426  and  _429
REMARK  161  A    between atoms: _429  and  _430
REMARK  162  A    between atoms: _430  and  _431
REMARK  163  A    between atoms: _431  and  _432
REMARK  164  A    between atoms: _432  and  _433
REMARK  165  A    between atoms: _437  and  _439
REMARK  166  A    between atoms: _439  and  _440
REMARK  167  A    between atoms: _439  and  _442
REMARK  168  A    between atoms: _442  and  _443
REMARK  169  A    between atoms: _448  and  _450
REMARK  170  A    between atoms: _450  and  _451
REMARK  171  A    between atoms: _450  and  _453
REMARK  172  A    between atoms: _453  and  _454
REMARK  173  A    between atoms: _454  and  _455
REMARK  174  A    between atoms: _457  and  _459
REMARK  175  A    between atoms: _459  and  _460
REMARK  176  A    between atoms: _459  and  _462
REMARK  177  A    between atoms: _462  and  _463
REMARK  178  A    between atoms: _463  and  _464
REMARK  179  A    between atoms: _467  and  _469
REMARK  180  A    between atoms: _469  and  _470
REMARK  181  A    between atoms: _469  and  _472
REMARK  182  A    between atoms: _475  and  _477
REMARK  183  A    between atoms: _477  and  _478
REMARK  184  A    between atoms: _477  and  _480
REMARK  185  A    between atoms: _480  and  _481
REMARK  186  A    between atoms: _484  and  _486
REMARK  187  A    between atoms: _486  and  _487
REMARK  188  A    between atoms: _486  and  _489
REMARK  189  A    between atoms: _489  and  _490
REMARK  190  A    between atoms: _493  and  _495
REMARK  191  A    between atoms: _495  and  _496
REMARK  192  A    between atoms: _495  and  _498
REMARK  193  A    between atoms: _498  and  _499
REMARK  194  A    between atoms: _502  and  _504
REMARK  195  A    between atoms: _504  and  _505
REMARK  196  A    between atoms: _507  and  _509
REMARK  197  A    between atoms: _509  and  _510
REMARK  198  A    between atoms: _512  and  _514
REMARK  199  A    between atoms: _514  and  _515
REMARK  200  A    between atoms: _514  and  _517
REMARK  201  A    between atoms: _517  and  _518
REMARK  202  A    between atoms: _518  and  _519
REMARK  203  A    between atoms: _522  and  _524
REMARK  204  A    between atoms: _524  and  _525
REMARK  205  A    between atoms: _524  and  _527
REMARK  206  A    between atoms: _527  and  _528
REMARK  207  A    between atoms: _531  and  _533
REMARK  208  A    between atoms: _533  and  _534
REMARK  209  A    between atoms: _533  and  _536
REMARK  210  A    between atoms: _536  and  _537
REMARK  211  A    between atoms: _543  and  _545
REMARK  212  A    between atoms: _545  and  _546
REMARK  213  A    between atoms: _549  and  _551
REMARK  214  A    between atoms: _551  and  _552
REMARK  215  A    between atoms: _551  and  _554
REMARK  216  A    between atoms: _554  and  _555
REMARK  217  A    between atoms: _560  and  _562
REMARK  218  A    between atoms: _562  and  _563
REMARK  219  A    between atoms: _562  and  _565
REMARK  220  A    between atoms: _565  and  _566
REMARK  221  A    between atoms: _571  and  _573
REMARK  222  A    between atoms: _573  and  _574
REMARK  223  A    between atoms: _573  and  _576
REMARK  224  A    between atoms: _576  and  _577
REMARK  225  A    between atoms: _580  and  _582
REMARK  226  A    between atoms: _582  and  _583
REMARK  227  A    between atoms: _582  and  _585
REMARK  228  A    between atoms: _585  and  _586
REMARK  229  A    between atoms: _591  and  _593
REMARK  230  A    between atoms: _593  and  _594
REMARK  231  A    between atoms: _593  and  _596
REMARK  232  A    between atoms: _596  and  _597
REMARK  233  A    between atoms: _597  and  _598
REMARK  234  A    between atoms: _598  and  _599
REMARK  235  A    between atoms: _608  and  _610
REMARK  236  A    between atoms: _610  and  _611
REMARK  237  A    between atoms: _613  and  _615
REMARK  238  A    between atoms: _615  and  _616
REMARK  239  A    between atoms: _615  and  _618
REMARK  240  A    between atoms: _618  and  _619
REMARK  241  A    between atoms: _624  and  _626
REMARK  242  A    between atoms: _626  and  _627
REMARK  243  A    between atoms: _629  and  _631
REMARK  244  A    between atoms: _631  and  _632
REMARK  245  A    between atoms: _635  and  _637
REMARK  246  A    between atoms: _637  and  _638
REMARK  247  A    between atoms: _640  and  _642
REMARK  248  A    between atoms: _642  and  _643
REMARK  249  A    between atoms: _645  and  _647
REMARK  250  A    between atoms: _647  and  _648
REMARK  251  A    between atoms: _651  and  _653
REMARK  252  A    between atoms: _653  and  _654
REMARK  253  A    between atoms: _653  and  _656
REMARK  254  A    between atoms: _656  and  _657
REMARK  255  A    between atoms: _657  and  _658
REMARK  256  A    between atoms: _658  and  _659
REMARK  257  A    between atoms: _668  and  _670
REMARK  258  A    between atoms: _670  and  _671
REMARK  259  A    between atoms: _670  and  _673
REMARK  260  A    between atoms: _673  and  _674
REMARK  261  A    between atoms: _677  and  _679
REMARK  262  A    between atoms: _679  and  _680
REMARK  263  A    between atoms: _679  and  _682
REMARK  264  A    between atoms: _682  and  _683
REMARK                            x       y       z     vdW  Elec       q    Type
REMARK                         _______ _______ _______ _____ _____    ______ ____
ROOT
ATOM      1  CA  ILE A   1      25.601 -16.595 -29.157  0.00  0.00    +0.133 C 
ENDROOT
BRANCH   1   2
ATOM      2  N   ILE A   1      26.098 -16.270 -27.825  0.00  0.00    -0.239 NA
ATOM      3  H   ILE A   1      25.657 -15.492 -27.295  0.00  0.00    +0.142 HD
ENDBRANCH   1   2
BRANCH   1   4
ATOM      4  CB  ILE A   1      24.058 -16.749 -29.108  0.00  0.00    +0.023 C 
ATOM      5  CG2 ILE A   1      23.483 -16.914 -30.509  0.00  0.00    +0.002 C 
BRANCH   4   6
ATOM      6  CG1 ILE A   1      23.717 -17.944 -28.210  0.00  0.00    +0.002 C 
ATOM      7  CD1 ILE A   1      22.246 -18.165 -27.971  0.00  0.00    +0.000 C 
ENDBRANCH   4   6
ENDBRANCH   1   4
BRANCH   1   8
ATOM      8  C   ILE A   1      26.024 -15.581 -30.224  0.00  0.00    +0.224 C 
ATOM      9  O   ILE A   1      25.806 -14.379 -30.078  0.00  0.00    -0.287 OA
ENDBRANCH   1   8
TORSDOF 4
REMARK  Name = ../refined-set-2016/3old/3old_pocket.pdb
REMARK  264 active torsions:
REMARK  status: ('A' for Active; 'I' for Inactive)
REMARK    1  A    between atoms: _1  and  _3
REMARK    2  A    between atoms: _3  and  _4
REMARK    3  A    between atoms: _3  and  _6
REMARK    4  A    between atoms: _6  and  _7
REMARK    5  A    between atoms: _12  and  _14
REMARK    6  A    between atoms: _14  and  _15
REMARK    7  A    between atoms: _14  and  _17
REMARK    8  A    between atoms: _17  and  _18
REMARK    9  A    between atoms: _24  and  _26
REMARK   10  A    between atoms: _26  and  _27
REMARK   11  A    between atoms: _26  and  _29
REMARK   12  A    between atoms: _29  and  _30
REMARK   13  A    between atoms: _30  and  _31
REMARK   14  A    between atoms: _37  and  _38
REMARK   15  A    between atoms: _43  and  _45
REMARK   16  A    between atoms: _45  and  _46
REMARK   17  A    between atoms: _45  and  _48
REMARK   18  A    between atoms: _48  and  _49
REMARK   19  A    between atoms: _54  and  _56
REMARK   20  A    between atoms: _56  and  _57
REMARK   21  A    between atoms: _56  and  _59
REMARK   22  A    between atoms: _62  and  _64
REMARK   23  A    between atoms: _64  and  _65
REMARK   24  A    between atoms: _64  and  _67
REMARK   25  A    between atoms: _67  and  _68
REMARK   26  A    between atoms: _72  and  _73
REMARK   27  A    between atoms: _79  and  _80
REMARK   28  A    between atoms: _85  and  _87
REMARK   29  A    between atoms: _87  and  _88
REMARK   30  A    between atoms: _87  and  _90
REMARK   31  A    between atoms: _90  and  _91
REMARK   32  A    between atoms: _101  and  _103
REMARK   33  A    between atoms: _103  and  _104
REMARK   34  A    between atoms: _103  and  _106
REMARK   35  A    between atoms: _106  and  _107
REMARK   36  A    between atoms: _117  and  _119
REMARK   37  A    between atoms: _119  and  _120
REMARK   38  A    between atoms: _119  and  _122
REMARK   39  A    between atoms: _122  and  _123
REMARK   40  A    between atoms: _123  and  _124
REMARK   41  A    between atoms: _127  and  _129
REMARK   42  A    between atoms: _129  and  _130
REMARK   43  A    between atoms: _129  and  _132
REMARK   44  A    between atoms: _132  and  _133
REMARK   45  A    between atoms: _133  and  _134
REMARK   46  A    between atoms: _134  and  _135
REMARK   47  A    between atoms: _144  and  _146
REMARK   48  A    between atoms: _146  and  _147
REMARK   49  A    between atoms: _146  and  _149
REMARK   50  A    between atoms: _149  and  _150
REMARK   51  A    between atoms: _155  and  _156
REMARK   52  A    between atoms: _158  and  _160
REMARK   53  A    between atoms: _160  and  _161
REMARK   54  A    between atoms: _160  and  _163
REMARK   55  A    between atoms: _163  and  _164
REMARK   56  A    between atoms: _164  and  _165
REMARK   57  A    between atoms: _171  and  _172
REMARK   58  A    between atoms: _177  and  _179
REMARK   59  A    between atoms: _179  and  _180
REMARK   60  A    between atoms: _179  and  _182
REMARK   61  A    between atoms: _182  and  _183
REMARK   62  A    between atoms: _186  and  _188
REMARK   63  A    between atoms: _188  and  _189
REMARK   64  A    between atoms: _192  and  _194
REMARK   65  A    between atoms: _194  and  _195
REMARK   66  A    between atoms: _194  and  _197
REMARK   67  A    between atoms: _200  and  _202
REMARK   68  A    between atoms: _202  and  _203
REMARK   69  A    between atoms: _202  and  _205
REMARK   70  A    between atoms: _205  and  _206
REMARK   71  A    between atoms: _209  and  _211
REMARK   72  A    between atoms: _211  and  _212
REMARK   73  A    between atoms: _211  and  _214
REMARK   74  A    between atoms: _214  and  _215
REMARK   75  A    between atoms: _220  and  _222
REMARK   76  A    between atoms: _222  and  _223
REMARK   77  A    between atoms: _222  and  _225
REMARK   78  A    between atoms: _225  and  _226
REMARK   79  A    between atoms: _231  and  _233
REMARK   80  A    between atoms: _233  and  _234
REMARK   81  A    between atoms: _233  and  _236
REMARK   82  A    between atoms: _236  and  _237
REMARK   83  A    between atoms: _237  and  _238
REMARK   84  A    between atoms: _240  and  _242
REMARK   85  A    between atoms: _242  and  _243
REMARK   86  A    between atoms: _242  and  _245
REMARK   87  A    between atoms: _247  and  _249
REMARK   88  A    between atoms: _249  and  _250
REMARK   89  A    between atoms: _252  and  _254
REMARK   90  A    between atoms: _254  and  _255
REMARK   91  A    between atoms: _254  and  _257
REMARK   92  A    between atoms: _257  and  _258
REMARK   93  A    between atoms: _263  and  _265
REMARK   94  A    between atoms: _265  and  _266
REMARK   95  A    between atoms: _269  and  _271
REMARK   96  A    between atoms: _271  and  _272
REMARK   97  A    between atoms: _271  and  _274
REMARK   98  A    between atoms: _277  and  _279
REMARK   99  A    between atoms: _279  and  _280
REMARK  100  A    between atoms: _279  and  _282
REMARK  101  A    between atoms: _282  and  _283
REMARK  102  A    between atoms: _286  and  _288
REMARK  103  A    between atoms: _288  and  _289
REMARK  104  A    between atoms: _288  and  _291
REMARK  105  A    between atoms: _291  and  _292
REMARK  106  A    between atoms: _295  and  _297
REMARK  107  A    between atoms: _297  and  _298
REMARK  108  A    between atoms: _297  and  _300
REMARK  109  A    between atoms: _300  and  _301
REMARK  110  A    between atoms: _306  and  _307
REMARK  111  A    between atoms: _309  and  _311
REMARK  112  A    between atoms: _311  and  _312
REMARK  113  A    between atoms: _311  and  _314
REMARK  114  A    between atoms: _317  and  _319
REMARK  115  A    between atoms: _319  and  _320
REMARK  116  A    between atoms: _319  and  _322
REMARK  117  A    between atoms: _322  and  _323
REMARK  118  A    between atoms: _323  and  _324
REMARK  119  A    between atoms: _324  and  _325
REMARK  120  A    between atoms: _334  and  _336
REMARK  121  A    between atoms: _336  and  _337
REMARK  122  A    between atoms: _336  and  _339
REMARK  123  A    between atoms: _339  and  _340
REMARK  124  A    between atoms: _343  and  _345
REMARK  125  A    between atoms: _345  and  _346
REMARK  126  A    between atoms: _345  and  _348
REMARK  127  A    between atoms: _348  and  _349
REMARK  128  A    between atoms: _352  and  _354
REMARK  129  A    between atoms: _354  and  _355
REMARK  130  A    between atoms: _357  and  _359
REMARK  131  A    between atoms: _359  and  _360
REMARK  132  A    between atoms: _359  and  _362
REMARK  133  A    between atoms: _362  and  _363
REMARK  134  A    between atoms: _366  and  _368
REMARK  135  A    between atoms: _368  and  _369
REMARK  136  A    between atoms: _368  and  _371
REMARK  137  A    between atoms: _371  and  _372
REMARK  138  A    between atoms: _375  and  _377
REMARK  139  A    between atoms: _377  and  _378
REMARK  140  A    between atoms: _377  and  _380
REMARK  141  A    between atoms: _380  and  _381
REMARK  142  A    between atoms: _381  and  _382
REMARK  143  A    between atoms: _382  and  _383
REMARK  144  A    between atoms: _392  and  _394
REMARK  145  A    between atoms: _394  and  _395
REMARK  146  A    between atoms: _394  and  _397
REMARK  147  A    between atoms: _397  and  _398
REMARK  148  A    between atoms: _401  and  _403
REMARK  149  A    between atoms: _403  and  _404
REMARK  150  A    between atoms: _403  and  _406
REMARK  151  A    between atoms: _406  and  _407
REMARK  152  A    between atoms: _410  and  _412
REMARK  153  A    between atoms: _412  and  _413
REMARK  154  A    between atoms: _416  and  _418
REMARK  155  A    between atoms: _418  and  _419
REMARK  156  A    between atoms: _418  and  _421
REMARK  157  A    between atoms: _421  and  _422
REMARK  158  A    between atoms: _424  and  _426
REMARK  159  A    between atoms: _426  and  _427
REMARK  160  A    between atoms: _426  and  _429
REMARK  161  A    between atoms: _429  and  _430
REMARK  162  A    between atoms: _430  and  _431
REMARK  163  A    between atoms: _431  and  _432
REMARK  164  A    between atoms: _432  and  _433
REMARK  165  A    between atoms: _437  and  _439
REMARK  166  A    between atoms: _439  and  _440
REMARK  167  A    between atoms: _439  and  _442
REMARK  168  A    between atoms: _442  and  _443
REMARK  169  A    between atoms: _448  and  _450
REMARK  170  A    between atoms: _450  and  _451
REMARK  171  A    between atoms: _450  and  _453
REMARK  172  A    between atoms: _453  and  _454
REMARK  173  A    between atoms: _454  and  _455
REMARK  174  A    between atoms: _457  and  _459
REMARK  175  A    between atoms: _459  and  _460
REMARK  176  A    between atoms: _459  and  _462
REMARK  177  A    between atoms: _462  and  _463
REMARK  178  A    between atoms: _463  and  _464
REMARK  179  A    between atoms: _467  and  _469
REMARK  180  A    between atoms: _469  and  _470
REMARK  181  A    between atoms: _469  and  _472
REMARK  182  A    between atoms: _475  and  _477
REMARK  183  A    between atoms: _477  and  _478
REMARK  184  A    between atoms: _477  and  _480
REMARK  185  A    between atoms: _480  and  _481
REMARK  186  A    between atoms: _484  and  _486
REMARK  187  A    between atoms: _486  and  _487
REMARK  188  A    between atoms: _486  and  _489
REMARK  189  A    between atoms: _489  and  _490
REMARK  190  A    between atoms: _493  and  _495
REMARK  191  A    between atoms: _495  and  _496
REMARK  192  A    between atoms: _495  and  _498
REMARK  193  A    between atoms: _498  and  _499
REMARK  194  A    between atoms: _502  and  _504
REMARK  195  A    between atoms: _504  and  _505
REMARK  196  A    between atoms: _507  and  _509
REMARK  197  A    between atoms: _509  and  _510
REMARK  198  A    between atoms: _512  and  _514
REMARK  199  A    between atoms: _514  and  _515
REMARK  200  A    between atoms: _514  and  _517
REMARK  201  A    between atoms: _517  and  _518
REMARK  202  A    between atoms: _518  and  _519
REMARK  203  A    between atoms: _522  and  _524
REMARK  204  A    between atoms: _524  and  _525
REMARK  205  A    between atoms: _524  and  _527
REMARK  206  A    between atoms: _527  and  _528
REMARK  207  A    between atoms: _531  and  _533
REMARK  208  A    between atoms: _533  and  _534
REMARK  209  A    between atoms: _533  and  _536
REMARK  210  A    between atoms: _536  and  _537
REMARK  211  A    between atoms: _543  and  _545
REMARK  212  A    between atoms: _545  and  _546
REMARK  213  A    between atoms: _549  and  _551
REMARK  214  A    between atoms: _551  and  _552
REMARK  215  A    between atoms: _551  and  _554
REMARK  216  A    between atoms: _554  and  _555
REMARK  217  A    between atoms: _560  and  _562
REMARK  218  A    between atoms: _562  and  _563
REMARK  219  A    between atoms: _562  and  _565
REMARK  220  A    between atoms: _565  and  _566
REMARK  221  A    between atoms: _571  and  _573
REMARK  222  A    between atoms: _573  and  _574
REMARK  223  A    between atoms: _573  and  _576
REMARK  224  A    between atoms: _576  and  _577
REMARK  225  A    between atoms: _580  and  _582
REMARK  226  A    between atoms: _582  and  _583
REMARK  227  A    between atoms: _582  and  _585
REMARK  228  A    between atoms: _585  and  _586
REMARK  229  A    between atoms: _591  and  _593
REMARK  230  A    between atoms: _593  and  _594
REMARK  231  A    between atoms: _593  and  _596
REMARK  232  A    between atoms: _596  and  _597
REMARK  233  A    between atoms: _597  and  _598
REMARK  234  A    between atoms: _598  and  _599
REMARK  235  A    between atoms: _608  and  _610
REMARK  236  A    between atoms: _610  and  _611
REMARK  237  A    between atoms: _613  and  _615
REMARK  238  A    between atoms: _615  and  _616
REMARK  239  A    between atoms: _615  and  _618
REMARK  240  A    between atoms: _618  and  _619
REMARK  241  A    between atoms: _624  and  _626
REMARK  242  A    between atoms: _626  and  _627
REMARK  243  A    between atoms: _629  and  _631
REMARK  244  A    between atoms: _631  and  _632
REMARK  245  A    between atoms: _635  and  _637
REMARK  246  A    between atoms: _637  and  _638
REMARK  247  A    between atoms: _640  and  _642
REMARK  248  A    between atoms: _642  and  _643
REMARK  249  A    between atoms: _645  and  _647
REMARK  250  A    between atoms: _647  and  _648
REMARK  251  A    between atoms: _651  and  _653
REMARK  252  A    between atoms: _653  and  _654
REMARK  253  A    between atoms: _653  and  _656
REMARK  254  A    between atoms: _656  and  _657
REMARK  255  A    between atoms: _657  and  _658
REMARK  256  A    between atoms: _658  and  _659
REMARK  257  A    between atoms: _668  and  _670
REMARK  258  A    between atoms: _670  and  _671
REMARK  259  A    between atoms: _670  and  _673
REMARK  260  A    between atoms: _673  and  _674
REMARK  261  A    between atoms: _677  and  _679
REMARK  262  A    between atoms: _679  and  _680
REMARK  263  A    between atoms: _679  and  _682
REMARK  264  A    between atoms: _682  and  _683
REMARK                            x       y       z     vdW  Elec       q    Type
REMARK                         _______ _______ _______ _____ _____    ______ ____
ROOT
ATOM      1  N   PRO A   1      22.271 -15.321 -34.285  0.00  0.00    -0.212 NA
ATOM      2  CD  PRO A   1      20.904 -15.384 -33.742  0.00  0.00    +0.089 C 
ATOM      3  CG  PRO A   1      20.598 -13.936 -33.458  0.00  0.00    +0.021 C 
ATOM      4  CB  PRO A   1      21.305 -13.216 -34.568  0.00  0.00    +0.027 C 
ATOM      5  CA  PRO A   1      22.645 -13.937 -34.607  0.00  0.00    +0.137 C 
ENDROOT
BRANCH   5   6
ATOM      6  C   PRO A   1      23.668 -13.361 -33.613  0.00  0.00    +0.224 C 
ATOM      7  O   PRO A   1      24.054 -14.037 -32.661  0.00  0.00    -0.287 OA
ENDBRANCH   5   6
TORSDOF 1
REMARK  Name = ../refined-set-2016/3old/3old_pocket.pdb
REMARK  264 active torsions:
REMARK  status: ('A' for Active; 'I' for Inactive)
REMARK    1  A    between atoms: _1  and  _3
REMARK    2  A    between atoms: _3  and  _4
REMARK    3  A    between atoms: _3  and  _6
REMARK    4  A    between atoms: _6  and  _7
REMARK    5  A    between atoms: _12  and  _14
REMARK    6  A    between atoms: _14  and  _15
REMARK    7  A    between atoms: _14  and  _17
REMARK    8  A    between atoms: _17  and  _18
REMARK    9  A    between atoms: _24  and  _26
REMARK   10  A    between atoms: _26  and  _27
REMARK   11  A    between atoms: _26  and  _29
REMARK   12  A    between atoms: _29  and  _30
REMARK   13  A    between atoms: _30  and  _31
REMARK   14  A    between atoms: _37  and  _38
REMARK   15  A    between atoms: _43  and  _45
REMARK   16  A    between atoms: _45  and  _46
REMARK   17  A    between atoms: _45  and  _48
REMARK   18  A    between atoms: _48  and  _49
REMARK   19  A    between atoms: _54  and  _56
REMARK   20  A    between atoms: _56  and  _57
REMARK   21  A    between atoms: _56  and  _59
REMARK   22  A    between atoms: _62  and  _64
REMARK   23  A    between atoms: _64  and  _65
REMARK   24  A    between atoms: _64  and  _67
REMARK   25  A    between atoms: _67  and  _68
REMARK   26  A    between atoms: _72  and  _73
REMARK   27  A    between atoms: _79  and  _80
REMARK   28  A    between atoms: _85  and  _87
REMARK   29  A    between atoms: _87  and  _88
REMARK   30  A    between atoms: _87  and  _90
REMARK   31  A    between atoms: _90  and  _91
REMARK   32  A    between atoms: _101  and  _103
REMARK   33  A    between atoms: _103  and  _104
REMARK   34  A    between atoms: _103  and  _106
REMARK   35  A    between atoms: _106  and  _107
REMARK   36  A    between atoms: _117  and  _119
REMARK   37  A    between atoms: _119  and  _120
REMARK   38  A    between atoms: _119  and  _122
REMARK   39  A    between atoms: _122  and  _123
REMARK   40  A    between atoms: _123  and  _124
REMARK   41  A    between atoms: _127  and  _129
REMARK   42  A    between atoms: _129  and  _130
REMARK   43  A    between atoms: _129  and  _132
REMARK   44  A    between atoms: _132  and  _133
REMARK   45  A    between atoms: _133  and  _134
REMARK   46  A    between atoms: _134  and  _135
REMARK   47  A    between atoms: _144  and  _146
REMARK   48  A    between atoms: _146  and  _147
REMARK   49  A    between atoms: _146  and  _149
REMARK   50  A    between atoms: _149  and  _150
REMARK   51  A    between atoms: _155  and  _156
REMARK   52  A    between atoms: _158  and  _160
REMARK   53  A    between atoms: _160  and  _161
REMARK   54  A    between atoms: _160  and  _163
REMARK   55  A    between atoms: _163  and  _164
REMARK   56  A    between atoms: _164  and  _165
REMARK   57  A    between atoms: _171  and  _172
REMARK   58  A    between atoms: _177  and  _179
REMARK   59  A    between atoms: _179  and  _180
REMARK   60  A    between atoms: _179  and  _182
REMARK   61  A    between atoms: _182  and  _183
REMARK   62  A    between atoms: _186  and  _188
REMARK   63  A    between atoms: _188  and  _189
REMARK   64  A    between atoms: _192  and  _194
REMARK   65  A    between atoms: _194  and  _195
REMARK   66  A    between atoms: _194  and  _197
REMARK   67  A    between atoms: _200  and  _202
REMARK   68  A    between atoms: _202  and  _203
REMARK   69  A    between atoms: _202  and  _205
REMARK   70  A    between atoms: _205  and  _206
REMARK   71  A    between atoms: _209  and  _211
REMARK   72  A    between atoms: _211  and  _212
REMARK   73  A    between atoms: _211  and  _214
REMARK   74  A    between atoms: _214  and  _215
REMARK   75  A    between atoms: _220  and  _222
REMARK   76  A    between atoms: _222  and  _223
REMARK   77  A    between atoms: _222  and  _225
REMARK   78  A    between atoms: _225  and  _226
REMARK   79  A    between atoms: _231  and  _233
REMARK   80  A    between atoms: _233  and  _234
REMARK   81  A    between atoms: _233  and  _236
REMARK   82  A    between atoms: _236  and  _237
REMARK   83  A    between atoms: _237  and  _238
REMARK   84  A    between atoms: _240  and  _242
REMARK   85  A    between atoms: _242  and  _243
REMARK   86  A    between atoms: _242  and  _245
REMARK   87  A    between atoms: _247  and  _249
REMARK   88  A    between atoms: _249  and  _250
REMARK   89  A    between atoms: _252  and  _254
REMARK   90  A    between atoms: _254  and  _255
REMARK   91  A    between atoms: _254  and  _257
REMARK   92  A    between atoms: _257  and  _258
REMARK   93  A    between atoms: _263  and  _265
REMARK   94  A    between atoms: _265  and  _266
REMARK   95  A    between atoms: _269  and  _271
REMARK   96  A    between atoms: _271  and  _272
REMARK   97  A    between atoms: _271  and  _274
REMARK   98  A    between atoms: _277  and  _279
REMARK   99  A    between atoms: _279  and  _280
REMARK  100  A    between atoms: _279  and  _282
REMARK  101  A    between atoms: _282  and  _283
REMARK  102  A    between atoms: _286  and  _288
REMARK  103  A    between atoms: _288  and  _289
REMARK  104  A    between atoms: _288  and  _291
REMARK  105  A    between atoms: _291  and  _292
REMARK  106  A    between atoms: _295  and  _297
REMARK  107  A    between atoms: _297  and  _298
REMARK  108  A    between atoms: _297  and  _300
REMARK  109  A    between atoms: _300  and  _301
REMARK  110  A    between atoms: _306  and  _307
REMARK  111  A    between atoms: _309  and  _311
REMARK  112  A    between atoms: _311  and  _312
REMARK  113  A    between atoms: _311  and  _314
REMARK  114  A    between atoms: _317  and  _319
REMARK  115  A    between atoms: _319  and  _320
REMARK  116  A    between atoms: _319  and  _322
REMARK  117  A    between atoms: _322  and  _323
REMARK  118  A    between atoms: _323  and  _324
REMARK  119  A    between atoms: _324  and  _325
REMARK  120  A    between atoms: _334  and  _336
REMARK  121  A    between atoms: _336  and  _337
REMARK  122  A    between atoms: _336  and  _339
REMARK  123  A    between atoms: _339  and  _340
REMARK  124  A    between atoms: _343  and  _345
REMARK  125  A    between atoms: _345  and  _346
REMARK  126  A    between atoms: _345  and  _348
REMARK  127  A    between atoms: _348  and  _349
REMARK  128  A    between atoms: _352  and  _354
REMARK  129  A    between atoms: _354  and  _355
REMARK  130  A    between atoms: _357  and  _359
REMARK  131  A    between atoms: _359  and  _360
REMARK  132  A    between atoms: _359  and  _362
REMARK  133  A    between atoms: _362  and  _363
REMARK  134  A    between atoms: _366  and  _368
REMARK  135  A    between atoms: _368  and  _369
REMARK  136  A    between atoms: _368  and  _371
REMARK  137  A    between atoms: _371  and  _372
REMARK  138  A    between atoms: _375  and  _377
REMARK  139  A    between atoms: _377  and  _378
REMARK  140  A    between atoms: _377  and  _380
REMARK  141  A    between atoms: _380  and  _381
REMARK  142  A    between atoms: _381  and  _382
REMARK  143  A    between atoms: _382  and  _383
REMARK  144  A    between atoms: _392  and  _394
REMARK  145  A    between atoms: _394  and  _395
REMARK  146  A    between atoms: _394  and  _397
REMARK  147  A    between atoms: _397  and  _398
REMARK  148  A    between atoms: _401  and  _403
REMARK  149  A    between atoms: _403  and  _404
REMARK  150  A    between atoms: _403  and  _406
REMARK  151  A    between atoms: _406  and  _407
REMARK  152  A    between atoms: _410  and  _412
REMARK  153  A    between atoms: _412  and  _413
REMARK  154  A    between atoms: _416  and  _418
REMARK  155  A    between atoms: _418  and  _419
REMARK  156  A    between atoms: _418  and  _421
REMARK  157  A    between atoms: _421  and  _422
REMARK  158  A    between atoms: _424  and  _426
REMARK  159  A    between atoms: _426  and  _427
REMARK  160  A    between atoms: _426  and  _429
REMARK  161  A    between atoms: _429  and  _430
REMARK  162  A    between atoms: _430  and  _431
REMARK  163  A    between atoms: _431  and  _432
REMARK  164  A    between atoms: _432  and  _433
REMARK  165  A    between atoms: _437  and  _439
REMARK  166  A    between atoms: _439  and  _440
REMARK  167  A    between atoms: _439  and  _442
REMARK  168  A    between atoms: _442  and  _443
REMARK  169  A    between atoms: _448  and  _450
REMARK  170  A    between atoms: _450  and  _451
REMARK  171  A    between atoms: _450  and  _453
REMARK  172  A    between atoms: _453  and  _454
REMARK  173  A    between atoms: _454  and  _455
REMARK  174  A    between atoms: _457  and  _459
REMARK  175  A    between atoms: _459  and  _460
REMARK  176  A    between atoms: _459  and  _462
REMARK  177  A    between atoms: _462  and  _463
REMARK  178  A    between atoms: _463  and  _464
REMARK  179  A    between atoms: _467  and  _469
REMARK  180  A    between atoms: _469  and  _470
REMARK  181  A    between atoms: _469  and  _472
REMARK  182  A    between atoms: _475  and  _477
REMARK  183  A    between atoms: _477  and  _478
REMARK  184  A    between atoms: _477  and  _480
REMARK  185  A    between atoms: _480  and  _481
REMARK  186  A    between atoms: _484  and  _486
REMARK  187  A    between atoms: _486  and  _487
REMARK  188  A    between atoms: _486  and  _489
REMARK  189  A    between atoms: _489  and  _490
REMARK  190  A    between atoms: _493  and  _495
REMARK  191  A    between atoms: _495  and  _496
REMARK  192  A    between atoms: _495  and  _498
REMARK  193  A    between atoms: _498  and  _499
REMARK  194  A    between atoms: _502  and  _504
REMARK  195  A    between atoms: _504  and  _505
REMARK  196  A    between atoms: _507  and  _509
REMARK  197  A    between atoms: _509  and  _510
REMARK  198  A    between atoms: _512  and  _514
REMARK  199  A    between atoms: _514  and  _515
REMARK  200  A    between atoms: _514  and  _517
REMARK  201  A    between atoms: _517  and  _518
REMARK  202  A    between atoms: _518  and  _519
REMARK  203  A    between atoms: _522  and  _524
REMARK  204  A    between atoms: _524  and  _525
REMARK  205  A    between atoms: _524  and  _527
REMARK  206  A    between atoms: _527  and  _528
REMARK  207  A    between atoms: _531  and  _533
REMARK  208  A    between atoms: _533  and  _534
REMARK  209  A    between atoms: _533  and  _536
REMARK  210  A    between atoms: _536  and  _537
REMARK  211  A    between atoms: _543  and  _545
REMARK  212  A    between atoms: _545  and  _546
REMARK  213  A    between atoms: _549  and  _551
REMARK  214  A    between atoms: _551  and  _552
REMARK  215  A    between atoms: _551  and  _554
REMARK  216  A    between atoms: _554  and  _555
REMARK  217  A    between atoms: _560  and  _562
REMARK  218  A    between atoms: _562  and  _563
REMARK  219  A    between atoms: _562  and  _565
REMARK  220  A    between atoms: _565  and  _566
REMARK  221  A    between atoms: _571  and  _573
REMARK  222  A    between atoms: _573  and  _574
REMARK  223  A    between atoms: _573  and  _576
REMARK  224  A    between atoms: _576  and  _577
REMARK  225  A    between atoms: _580  and  _582
REMARK  226  A    between atoms: _582  and  _583
REMARK  227  A    between atoms: _582  and  _585
REMARK  228  A    between atoms: _585  and  _586
REMARK  229  A    between atoms: _591  and  _593
REMARK  230  A    between atoms: _593  and  _594
REMARK  231  A    between atoms: _593  and  _596
REMARK  232  A    between atoms: _596  and  _597
REMARK  233  A    between atoms: _597  and  _598
REMARK  234  A    between atoms: _598  and  _599
REMARK  235  A    between atoms: _608  and  _610
REMARK  236  A    between atoms: _610  and  _611
REMARK  237  A    between atoms: _613  and  _615
REMARK  238  A    between atoms: _615  and  _616
REMARK  239  A    between atoms: _615  and  _618
REMARK  240  A    between atoms: _618  and  _619
REMARK  241  A    between atoms: _624  and  _626
REMARK  242  A    between atoms: _626  and  _627
REMARK  243  A    between atoms: _629  and  _631
REMARK  244  A    between atoms: _631  and  _632
REMARK  245  A    between atoms: _635  and  _637
REMARK  246  A    between atoms: _637  and  _638
REMARK  247  A    between atoms: _640  and  _642
REMARK  248  A    between atoms: _642  and  _643
REMARK  249  A    between atoms: _645  and  _647
REMARK  250  A    between atoms: _647  and  _648
REMARK  251  A    between atoms: _651  and  _653
REMARK  252  A    between atoms: _653  and  _654
REMARK  253  A    between atoms: _653  and  _656
REMARK  254  A    between atoms: _656  and  _657
REMARK  255  A    between atoms: _657  and  _658
REMARK  256  A    between atoms: _658  and  _659
REMARK  257  A    between atoms: _668  and  _670
REMARK  258  A    between atoms: _670  and  _671
REMARK  259  A    between atoms: _670  and  _673
REMARK  260  A    between atoms: _673  and  _674
REMARK  261  A    between atoms: _677  and  _679
REMARK  262  A    between atoms: _679  and  _680
REMARK  263  A    between atoms: _679  and  _682
REMARK  264  A    between atoms: _682  and  _683
REMARK                            x       y       z     vdW  Elec       q    Type
REMARK                         _______ _______ _______ _____ _____    ______ ____
ROOT
ATOM      1  C   GLU A   4      21.150 -15.664 -23.599  0.00  0.00    +0.241 C 
ATOM      2  N   ARG A   5      20.648 -14.634 -22.920  0.00  0.00    -0.297 N 
ATOM      3  H   ARG A   5      20.221 -13.837 -23.435  0.00  0.00    +0.150 HD
ATOM      4  O   GLU A   4      21.624 -16.655 -23.040  0.00  0.00    -0.273 OA
ENDROOT
BRANCH   1   5
ATOM      5  CA  GLU A   4      21.077 -15.579 -25.126  0.00  0.00    +0.149 C 
BRANCH   5   8
ATOM      6  C   TRP A   3      18.775 -14.913 -25.221  0.00  0.00    +0.241 C 
ATOM      7  O   TRP A   3      18.451 -15.988 -24.720  0.00  0.00    -0.273 OA
ATOM      8  N   GLU A   4      20.045 -14.610 -25.480  0.00  0.00    -0.297 N 
ATOM      9  H   GLU A   4      20.296 -13.704 -25.924  0.00  0.00    +0.150 HD
BRANCH   6  10
ATOM     10  CA  TRP A   3      17.703 -13.888 -25.551  0.00  0.00    +0.153 C 
BRANCH  10  13
ATOM     11  C   TRP A   2      18.729 -11.726 -25.310  0.00  0.00    +0.241 C 
ATOM     12  O   TRP A   2      19.022 -11.981 -24.140  0.00  0.00    -0.273 OA
ATOM     13  N   TRP A   3      18.114 -12.606 -26.100  0.00  0.00    -0.297 N 
ATOM     14  H   TRP A   3      17.930 -12.378 -27.098  0.00  0.00    +0.150 HD
BRANCH  11  15
ATOM     15  CA  TRP A   2      19.086 -10.373 -25.927  0.00  0.00    +0.153 C 
BRANCH  15  18
ATOM     16  C   PRO A   1      20.471 -11.379 -27.631  0.00  0.00    +0.239 C 
ATOM     17  O   PRO A   1      21.108 -12.005 -26.782  0.00  0.00    -0.274 OA
ATOM     18  N   TRP A   2      19.477 -10.557 -27.319  0.00  0.00    -0.297 N 
ATOM     19  H   TRP A   2      18.975 -10.042 -28.070  0.00  0.00    +0.150 HD
BRANCH  16  21
ATOM     20  N   PRO A   1      22.219 -11.877 -29.272  0.00  0.00    -0.210 NA
ATOM     21  CA  PRO A   1      20.807 -11.523 -29.110  0.00  0.00    +0.149 C 
ATOM     22  CB  PRO A   1      20.087 -12.702 -29.750  0.00  0.00    +0.028 C 
ATOM     23  CG  PRO A   1      20.994 -13.854 -29.394  0.00  0.00    +0.021 C 
ATOM     24  CD  PRO A   1      22.360 -13.273 -29.723  0.00  0.00    +0.089 C 
ENDBRANCH  16  21
ENDBRANCH  15  18
BRANCH  15  25
ATOM     25  CB  TRP A   2      17.871  -9.444 -25.822  0.00  0.00    +0.057 C 
BRANCH  25  26
ATOM     26  CG  TRP A   2      16.646  -9.963 -26.534  0.00  0.00    -0.002 A 
ATOM     27  CD2 TRP A   2      15.618 -10.795 -25.979  0.00  0.00    +0.013 A 
ATOM     28  CE3 TRP A   2      15.394 -11.349 -24.710  0.00  0.00    +0.001 A 
ATOM     29  CZ3 TRP A   2      14.263 -12.135 -24.510  0.00  0.00    +0.000 A 
ATOM     30  CH2 TRP A   2      13.355 -12.375 -25.555  0.00  0.00    +0.001 A 
ATOM     31  CZ2 TRP A   2      13.547 -11.847 -26.809  0.00  0.00    +0.017 A 
ATOM     32  CE2 TRP A   2      14.686 -11.057 -27.010  0.00  0.00    +0.056 A 
ATOM     33  NE1 TRP A   2      15.128 -10.415 -28.138  0.00  0.00    -0.352 N 
ATOM     34  HE1 TRP A   2      14.653 -10.421 -29.063  0.00  0.00    +0.166 HD
ATOM     35  CD1 TRP A   2      16.305  -9.760 -27.845  0.00  0.00    +0.068 A 
ENDBRANCH  25  26
ENDBRANCH  15  25
ENDBRANCH  11  15
ENDBRANCH  10  13
BRANCH  10  36
ATOM     36  CB  TRP A   3      16.607 -14.545 -26.410  0.00  0.00    +0.057 C 
BRANCH  36  37
ATOM     37  CG  TRP A   3      16.815 -14.572 -27.900  0.00  0.00    -0.002 A 
ATOM     38  CD2 TRP A   3      17.646 -15.478 -28.644  0.00  0.00    +0.013 A 
ATOM     39  CE3 TRP A   3      18.541 -16.496 -28.285  0.00  0.00    +0.001 A 
ATOM     40  CZ3 TRP A   3      19.195 -17.202 -29.297  0.00  0.00    +0.000 A 
ATOM     41  CH2 TRP A   3      18.967 -16.904 -30.653  0.00  0.00    +0.001 A 
ATOM     42  CZ2 TRP A   3      18.097 -15.912 -31.032  0.00  0.00    +0.017 A 
ATOM     43  CE2 TRP A   3      17.440 -15.203 -30.015  0.00  0.00    +0.056 A 
ATOM     44  NE1 TRP A   3      16.534 -14.178 -30.098  0.00  0.00    -0.352 N 
ATOM     45  HE1 TRP A   3      16.181 -13.754 -30.979  0.00  0.00    +0.166 HD
ATOM     46  CD1 TRP A   3      16.168 -13.802 -28.828  0.00  0.00    +0.068 A 
ENDBRANCH  36  37
ENDBRANCH  10  36
ENDBRANCH   6  10
ENDBRANCH   5   8
BRANCH   5  47
ATOM     47  CB  GLU A   4      22.450 -15.186 -25.703  0.00  0.00    +0.041 C 
BRANCH  47  48
ATOM     48  CG  GLU A   4      23.043 -13.871 -25.200  0.00  0.00    +0.116 C 
BRANCH  48  49
ATOM     49  CD  GLU A   4      24.535 -13.752 -25.504  0.00  0.00    +0.365 C 
ATOM     50  OE2 GLU A   4      25.313 -13.440 -24.574  0.00  0.00    -0.246 OA
ATOM     51  OE1 GLU A   4      24.929 -13.969 -26.671  0.00  0.00    -0.246 OA
ENDBRANCH  48  49
ENDBRANCH  47  48
ENDBRANCH   5  47
ENDBRANCH   1   5
BRANCH   2  52
ATOM     52  CA  ARG A   5      20.690 -14.611 -21.458  0.00  0.00    +0.149 C 
BRANCH  52  53
ATOM     53  C   ARG A   5      19.689 -15.551 -20.804  0.00  0.00    +0.241 C 
ATOM     54  O   ARG A   5      19.678 -15.700 -19.581  0.00  0.00    -0.273 OA
ATOM     55  N   TYR A   6      18.855 -16.190 -21.615  0.00  0.00    -0.297 N 
ATOM     56  H   TYR A   6      18.897 -16.012 -22.639  0.00  0.00    +0.150 HD
BRANCH  55  57
ATOM     57  CA  TYR A   6      17.883 -17.136 -21.090  0.00  0.00    +0.153 C 
BRANCH  57  58
ATOM     58  C   TYR A   6      18.313 -18.570 -21.400  0.00  0.00    +0.241 C 
ATOM     59  O   TYR A   6      17.505 -19.498 -21.420  0.00  0.00    -0.273 OA
ATOM     60  N   GLN A   7      19.614 -18.733 -21.626  0.00  0.00    -0.297 N 
ATOM     61  H   GLN A   7      20.231 -17.896 -21.613  0.00  0.00    +0.150 HD
BRANCH  60  62
ATOM     62  CA  GLN A   7      20.212 -20.038 -21.891  0.00  0.00    +0.149 C 
BRANCH  62  63
ATOM     63  C   GLN A   7      21.395 -20.190 -20.932  0.00  0.00    +0.244 C 
ATOM     64  N   PRO A   8      21.116 -20.570 -19.675  0.00  0.00    -0.273 N 
ATOM     65  CA  PRO A   8      22.143 -20.749 -18.638  0.00  0.00    +0.140 C 
ATOM     66  CB  PRO A   8      21.327 -21.152 -17.405  0.00  0.00    +0.030 C 
ATOM     67  CG  PRO A   8      20.009 -20.474 -17.629  0.00  0.00    +0.024 C 
ATOM     68  CD  PRO A   8      19.767 -20.733 -19.104  0.00  0.00    +0.094 C 
ATOM     69  O   GLN A   7      22.543 -19.962 -21.302  0.00  0.00    -0.273 OA
BRANCH  65  70
ATOM     70  C   PRO A   8      23.243 -21.766 -18.939  0.00  0.00    +0.227 C 
ATOM     71  O   PRO A   8      22.999 -22.814 -19.542  0.00  0.00    -0.286 OA
ENDBRANCH  65  70
ENDBRANCH  62  63
BRANCH  62  72
ATOM     72  CB  GLN A   7      20.680 -20.135 -23.347  0.00  0.00    +0.039 C 
BRANCH  72  73
ATOM     73  CG  GLN A   7      19.535 -20.294 -24.343  0.00  0.00    +0.087 C 
BRANCH  73  74
ATOM     74  CD  GLN A   7      20.012 -20.628 -25.748  0.00  0.00    +0.219 C 
ATOM     75  OE1 GLN A   7      20.813 -21.539 -25.940  0.00  0.00    -0.275 OA
ATOM     76  NE2 GLN A   7      19.507 -19.896 -26.737  0.00  0.00    -0.329 N 
ATOM     77 HE21 GLN A   7      18.831 -19.134 -26.527  0.00  0.00    +0.145 HD
ATOM     78 HE22 GLN A   7      19.788 -20.086 -27.720  0.00  0.00    +0.145 HD
ENDBRANCH  73  74
ENDBRANCH  72  73
ENDBRANCH  62  72
ENDBRANCH  60  62
ENDBRANCH  57  58
BRANCH  57  79
ATOM     79  CB  TYR A   6      16.490 -16.807 -21.638  0.00  0.00    +0.055 C 
BRANCH  79  80
ATOM     80  CG  TYR A   6      15.955 -15.528 -21.014  0.00  0.00    -0.020 A 
ATOM     81  CD2 TYR A   6      15.418 -15.531 -19.726  0.00  0.00    -0.001 A 
ATOM     82  CE2 TYR A   6      15.042 -14.340 -19.092  0.00  0.00    +0.036 A 
ATOM     83  CZ  TYR A   6      15.205 -13.136 -19.754  0.00  0.00    +0.134 A 
ATOM     84  CE1 TYR A   6      15.725 -13.109 -21.040  0.00  0.00    +0.036 A 
ATOM     85  CD1 TYR A   6      16.094 -14.301 -21.663  0.00  0.00    -0.001 A 
BRANCH  83  86
ATOM     86  OH  TYR A   6      14.884 -11.954 -19.124  0.00  0.00    -0.506 OA
ATOM     87  HH  TYR A   6      14.529 -12.149 -18.221  0.00  0.00    +0.292 HD
ENDBRANCH  83  86
ENDBRANCH  79  80
ENDBRANCH  57  79
ENDBRANCH  55  57
ENDBRANCH  52  53
BRANCH  52  88
ATOM     88  CB  ARG A   5      20.497 -13.179 -20.940  0.00  0.00    +0.033 C 
BRANCH  88  89
ATOM     89  CG  ARG A   5      21.600 -12.243 -21.415  0.00  0.00    +0.045 C 
BRANCH  89  90
ATOM     90  CD  ARG A   5      21.556 -10.867 -20.765  0.00  0.00    +0.174 C 
BRANCH  90  91
ATOM     91  NE  ARG A   5      21.953 -10.890 -19.358  0.00  0.00    -0.265 N 
ATOM     92  CZ  ARG A   5      22.424  -9.829 -18.713  0.00  0.00    +0.342 C 
ATOM     93  NH2 ARG A   5      22.753  -9.912 -17.428  0.00  0.00    -0.292 N 
ATOM     94 HH21 ARG A   5      22.642 -10.813 -16.920  0.00  0.00    +0.255 HD
ATOM     95 HH22 ARG A   5      23.121  -9.076 -16.930  0.00  0.00    +0.255 HD
ATOM     96  NH1 ARG A   5      22.557  -8.678 -19.358  0.00  0.00    -0.292 N 
ATOM     97 HH11 ARG A   5      22.925  -7.842 -18.860  0.00  0.00    +0.255 HD
ATOM     98 HH12 ARG A   5      22.293  -8.611 -20.362  0.00  0.00    +0.255 HD
ATOM     99  HE  ARG A   5      21.862 -11.784 -18.835  0.00  0.00    +0.259 HD
ENDBRANCH  90  91
ENDBRANCH  89  90
ENDBRANCH  88  89
ENDBRANCH  52  88
ENDBRANCH   2  52
TORSDOF 31
REMARK  Name = ../refined-set-2016/3old/3old_pocket.pdb
REMARK  264 active torsions:
REMARK  status: ('A' for Active; 'I' for Inactive)
REMARK    1  A    between atoms: _1  and  _3
REMARK    2  A    between atoms: _3  and  _4
REMARK    3  A    between atoms: _3  and  _6
REMARK    4  A    between atoms: _6  and  _7
REMARK    5  A    between atoms: _12  and  _14
REMARK    6  A    between atoms: _14  and  _15
REMARK    7  A    between atoms: _14  and  _17
REMARK    8  A    between atoms: _17  and  _18
REMARK    9  A    between atoms: _24  and  _26
REMARK   10  A    between atoms: _26  and  _27
REMARK   11  A    between atoms: _26  and  _29
REMARK   12  A    between atoms: _29  and  _30
REMARK   13  A    between atoms: _30  and  _31
REMARK   14  A    between atoms: _37  and  _38
REMARK   15  A    between atoms: _43  and  _45
REMARK   16  A    between atoms: _45  and  _46
REMARK   17  A    between atoms: _45  and  _48
REMARK   18  A    between atoms: _48  and  _49
REMARK   19  A    between atoms: _54  and  _56
REMARK   20  A    between atoms: _56  and  _57
REMARK   21  A    between atoms: _56  and  _59
REMARK   22  A    between atoms: _62  and  _64
REMARK   23  A    between atoms: _64  and  _65
REMARK   24  A    between atoms: _64  and  _67
REMARK   25  A    between atoms: _67  and  _68
REMARK   26  A    between atoms: _72  and  _73
REMARK   27  A    between atoms: _79  and  _80
REMARK   28  A    between atoms: _85  and  _87
REMARK   29  A    between atoms: _87  and  _88
REMARK   30  A    between atoms: _87  and  _90
REMARK   31  A    between atoms: _90  and  _91
REMARK   32  A    between atoms: _101  and  _103
REMARK   33  A    between atoms: _103  and  _104
REMARK   34  A    between atoms: _103  and  _106
REMARK   35  A    between atoms: _106  and  _107
REMARK   36  A    between atoms: _117  and  _119
REMARK   37  A    between atoms: _119  and  _120
REMARK   38  A    between atoms: _119  and  _122
REMARK   39  A    between atoms: _122  and  _123
REMARK   40  A    between atoms: _123  and  _124
REMARK   41  A    between atoms: _127  and  _129
REMARK   42  A    between atoms: _129  and  _130
REMARK   43  A    between atoms: _129  and  _132
REMARK   44  A    between atoms: _132  and  _133
REMARK   45  A    between atoms: _133  and  _134
REMARK   46  A    between atoms: _134  and  _135
REMARK   47  A    between atoms: _144  and  _146
REMARK   48  A    between atoms: _146  and  _147
REMARK   49  A    between atoms: _146  and  _149
REMARK   50  A    between atoms: _149  and  _150
REMARK   51  A    between atoms: _155  and  _156
REMARK   52  A    between atoms: _158  and  _160
REMARK   53  A    between atoms: _160  and  _161
REMARK   54  A    between atoms: _160  and  _163
REMARK   55  A    between atoms: _163  and  _164
REMARK   56  A    between atoms: _164  and  _165
REMARK   57  A    between atoms: _171  and  _172
REMARK   58  A    between atoms: _177  and  _179
REMARK   59  A    between atoms: _179  and  _180
REMARK   60  A    between atoms: _179  and  _182
REMARK   61  A    between atoms: _182  and  _183
REMARK   62  A    between atoms: _186  and  _188
REMARK   63  A    between atoms: _188  and  _189
REMARK   64  A    between atoms: _192  and  _194
REMARK   65  A    between atoms: _194  and  _195
REMARK   66  A    between atoms: _194  and  _197
REMARK   67  A    between atoms: _200  and  _202
REMARK   68  A    between atoms: _202  and  _203
REMARK   69  A    between atoms: _202  and  _205
REMARK   70  A    between atoms: _205  and  _206
REMARK   71  A    between atoms: _209  and  _211
REMARK   72  A    between atoms: _211  and  _212
REMARK   73  A    between atoms: _211  and  _214
REMARK   74  A    between atoms: _214  and  _215
REMARK   75  A    between atoms: _220  and  _222
REMARK   76  A    between atoms: _222  and  _223
REMARK   77  A    between atoms: _222  and  _225
REMARK   78  A    between atoms: _225  and  _226
REMARK   79  A    between atoms: _231  and  _233
REMARK   80  A    between atoms: _233  and  _234
REMARK   81  A    between atoms: _233  and  _236
REMARK   82  A    between atoms: _236  and  _237
REMARK   83  A    between atoms: _237  and  _238
REMARK   84  A    between atoms: _240  and  _242
REMARK   85  A    between atoms: _242  and  _243
REMARK   86  A    between atoms: _242  and  _245
REMARK   87  A    between atoms: _247  and  _249
REMARK   88  A    between atoms: _249  and  _250
REMARK   89  A    between atoms: _252  and  _254
REMARK   90  A    between atoms: _254  and  _255
REMARK   91  A    between atoms: _254  and  _257
REMARK   92  A    between atoms: _257  and  _258
REMARK   93  A    between atoms: _263  and  _265
REMARK   94  A    between atoms: _265  and  _266
REMARK   95  A    between atoms: _269  and  _271
REMARK   96  A    between atoms: _271  and  _272
REMARK   97  A    between atoms: _271  and  _274
REMARK   98  A    between atoms: _277  and  _279
REMARK   99  A    between atoms: _279  and  _280
REMARK  100  A    between atoms: _279  and  _282
REMARK  101  A    between atoms: _282  and  _283
REMARK  102  A    between atoms: _286  and  _288
REMARK  103  A    between atoms: _288  and  _289
REMARK  104  A    between atoms: _288  and  _291
REMARK  105  A    between atoms: _291  and  _292
REMARK  106  A    between atoms: _295  and  _297
REMARK  107  A    between atoms: _297  and  _298
REMARK  108  A    between atoms: _297  and  _300
REMARK  109  A    between atoms: _300  and  _301
REMARK  110  A    between atoms: _306  and  _307
REMARK  111  A    between atoms: _309  and  _311
REMARK  112  A    between atoms: _311  and  _312
REMARK  113  A    between atoms: _311  and  _314
REMARK  114  A    between atoms: _317  and  _319
REMARK  115  A    between atoms: _319  and  _320
REMARK  116  A    between atoms: _319  and  _322
REMARK  117  A    between atoms: _322  and  _323
REMARK  118  A    between atoms: _323  and  _324
REMARK  119  A    between atoms: _324  and  _325
REMARK  120  A    between atoms: _334  and  _336
REMARK  121  A    between atoms: _336  and  _337
REMARK  122  A    between atoms: _336  and  _339
REMARK  123  A    between atoms: _339  and  _340
REMARK  124  A    between atoms: _343  and  _345
REMARK  125  A    between atoms: _345  and  _346
REMARK  126  A    between atoms: _345  and  _348
REMARK  127  A    between atoms: _348  and  _349
REMARK  128  A    between atoms: _352  and  _354
REMARK  129  A    between atoms: _354  and  _355
REMARK  130  A    between atoms: _357  and  _359
REMARK  131  A    between atoms: _359  and  _360
REMARK  132  A    between atoms: _359  and  _362
REMARK  133  A    between atoms: _362  and  _363
REMARK  134  A    between atoms: _366  and  _368
REMARK  135  A    between atoms: _368  and  _369
REMARK  136  A    between atoms: _368  and  _371
REMARK  137  A    between atoms: _371  and  _372
REMARK  138  A    between atoms: _375  and  _377
REMARK  139  A    between atoms: _377  and  _378
REMARK  140  A    between atoms: _377  and  _380
REMARK  141  A    between atoms: _380  and  _381
REMARK  142  A    between atoms: _381  and  _382
REMARK  143  A    between atoms: _382  and  _383
REMARK  144  A    between atoms: _392  and  _394
REMARK  145  A    between atoms: _394  and  _395
REMARK  146  A    between atoms: _394  and  _397
REMARK  147  A    between atoms: _397  and  _398
REMARK  148  A    between atoms: _401  and  _403
REMARK  149  A    between atoms: _403  and  _404
REMARK  150  A    between atoms: _403  and  _406
REMARK  151  A    between atoms: _406  and  _407
REMARK  152  A    between atoms: _410  and  _412
REMARK  153  A    between atoms: _412  and  _413
REMARK  154  A    between atoms: _416  and  _418
REMARK  155  A    between atoms: _418  and  _419
REMARK  156  A    between atoms: _418  and  _421
REMARK  157  A    between atoms: _421  and  _422
REMARK  158  A    between atoms: _424  and  _426
REMARK  159  A    between atoms: _426  and  _427
REMARK  160  A    between atoms: _426  and  _429
REMARK  161  A    between atoms: _429  and  _430
REMARK  162  A    between atoms: _430  and  _431
REMARK  163  A    between atoms: _431  and  _432
REMARK  164  A    between atoms: _432  and  _433
REMARK  165  A    between atoms: _437  and  _439
REMARK  166  A    between atoms: _439  and  _440
REMARK  167  A    between atoms: _439  and  _442
REMARK  168  A    between atoms: _442  and  _443
REMARK  169  A    between atoms: _448  and  _450
REMARK  170  A    between atoms: _450  and  _451
REMARK  171  A    between atoms: _450  and  _453
REMARK  172  A    between atoms: _453  and  _454
REMARK  173  A    between atoms: _454  and  _455
REMARK  174  A    between atoms: _457  and  _459
REMARK  175  A    between atoms: _459  and  _460
REMARK  176  A    between atoms: _459  and  _462
REMARK  177  A    between atoms: _462  and  _463
REMARK  178  A    between atoms: _463  and  _464
REMARK  179  A    between atoms: _467  and  _469
REMARK  180  A    between atoms: _469  and  _470
REMARK  181  A    between atoms: _469  and  _472
REMARK  182  A    between atoms: _475  and  _477
REMARK  183  A    between atoms: _477  and  _478
REMARK  184  A    between atoms: _477  and  _480
REMARK  185  A    between atoms: _480  and  _481
REMARK  186  A    between atoms: _484  and  _486
REMARK  187  A    between atoms: _486  and  _487
REMARK  188  A    between atoms: _486  and  _489
REMARK  189  A    between atoms: _489  and  _490
REMARK  190  A    between atoms: _493  and  _495
REMARK  191  A    between atoms: _495  and  _496
REMARK  192  A    between atoms: _495  and  _498
REMARK  193  A    between atoms: _498  and  _499
REMARK  194  A    between atoms: _502  and  _504
REMARK  195  A    between atoms: _504  and  _505
REMARK  196  A    between atoms: _507  and  _509
REMARK  197  A    between atoms: _509  and  _510
REMARK  198  A    between atoms: _512  and  _514
REMARK  199  A    between atoms: _514  and  _515
REMARK  200  A    between atoms: _514  and  _517
REMARK  201  A    between atoms: _517  and  _518
REMARK  202  A    between atoms: _518  and  _519
REMARK  203  A    between atoms: _522  and  _524
REMARK  204  A    between atoms: _524  and  _525
REMARK  205  A    between atoms: _524  and  _527
REMARK  206  A    between atoms: _527  and  _528
REMARK  207  A    between atoms: _531  and  _533
REMARK  208  A    between atoms: _533  and  _534
REMARK  209  A    between atoms: _533  and  _536
REMARK  210  A    between atoms: _536  and  _537
REMARK  211  A    between atoms: _543  and  _545
REMARK  212  A    between atoms: _545  and  _546
REMARK  213  A    between atoms: _549  and  _551
REMARK  214  A    between atoms: _551  and  _552
REMARK  215  A    between atoms: _551  and  _554
REMARK  216  A    between atoms: _554  and  _555
REMARK  217  A    between atoms: _560  and  _562
REMARK  218  A    between atoms: _562  and  _563
REMARK  219  A    between atoms: _562  and  _565
REMARK  220  A    between atoms: _565  and  _566
REMARK  221  A    between atoms: _571  and  _573
REMARK  222  A    between atoms: _573  and  _574
REMARK  223  A    between atoms: _573  and  _576
REMARK  224  A    between atoms: _576  and  _577
REMARK  225  A    between atoms: _580  and  _582
REMARK  226  A    between atoms: _582  and  _583
REMARK  227  A    between atoms: _582  and  _585
REMARK  228  A    between atoms: _585  and  _586
REMARK  229  A    between atoms: _591  and  _593
REMARK  230  A    between atoms: _593  and  _594
REMARK  231  A    between atoms: _593  and  _596
REMARK  232  A    between atoms: _596  and  _597
REMARK  233  A    between atoms: _597  and  _598
REMARK  234  A    between atoms: _598  and  _599
REMARK  235  A    between atoms: _608  and  _610
REMARK  236  A    between atoms: _610  and  _611
REMARK  237  A    between atoms: _613  and  _615
REMARK  238  A    between atoms: _615  and  _616
REMARK  239  A    between atoms: _615  and  _618
REMARK  240  A    between atoms: _618  and  _619
REMARK  241  A    between atoms: _624  and  _626
REMARK  242  A    between atoms: _626  and  _627
REMARK  243  A    between atoms: _629  and  _631
REMARK  244  A    between atoms: _631  and  _632
REMARK  245  A    between atoms: _635  and  _637
REMARK  246  A    between atoms: _637  and  _638
REMARK  247  A    between atoms: _640  and  _642
REMARK  248  A    between atoms: _642  and  _643
REMARK  249  A    between atoms: _645  and  _647
REMARK  250  A    between atoms: _647  and  _648
REMARK  251  A    between atoms: _651  and  _653
REMARK  252  A    between atoms: _653  and  _654
REMARK  253  A    between atoms: _653  and  _656
REMARK  254  A    between atoms: _656  and  _657
REMARK  255  A    between atoms: _657  and  _658
REMARK  256  A    between atoms: _658  and  _659
REMARK  257  A    between atoms: _668  and  _670
REMARK  258  A    between atoms: _670  and  _671
REMARK  259  A    between atoms: _670  and  _673
REMARK  260  A    between atoms: _673  and  _674
REMARK  261  A    between atoms: _677  and  _679
REMARK  262  A    between atoms: _679  and  _680
REMARK  263  A    between atoms: _679  and  _682
REMARK  264  A    between atoms: _682  and  _683
REMARK                            x       y       z     vdW  Elec       q    Type
REMARK                         _______ _______ _______ _____ _____    ______ ____
ROOT
ATOM      1  CA  HIS A   6      16.372 -25.065 -18.053  0.00  0.00    +0.155 C 
ENDROOT
BRANCH   1   2
ATOM      2  C   HIS A   6      17.788 -24.507 -18.099  0.00  0.00    +0.241 C 
ATOM      3  O   HIS A   6      18.130 -23.558 -17.396  0.00  0.00    -0.273 OA
ATOM      4  N   MET A   7      18.601 -25.117 -18.955  0.00  0.00    -0.297 N 
ATOM      5  H   MET A   7      18.256 -25.948 -19.476  0.00  0.00    +0.150 HD
BRANCH   4   6
ATOM      6  CA  MET A   7      19.955 -24.655 -19.182  0.00  0.00    +0.149 C 
BRANCH   6   7
ATOM      7  C   MET A   7      19.926 -24.172 -20.637  0.00  0.00    +0.241 C 
ATOM      8  O   MET A   7      18.952 -23.538 -21.048  0.00  0.00    -0.273 OA
ATOM      9  N   CYS A   8      20.939 -24.482 -21.435  0.00  0.00    -0.296 N 
ATOM     10  H   CYS A   8      21.721 -25.073 -21.087  0.00  0.00    +0.150 HD
BRANCH   9  11
ATOM     11  CA  CYS A   8      20.944 -23.983 -22.811  0.00  0.00    +0.160 C 
BRANCH  11  12
ATOM     12  C   CYS A   8      20.148 -24.802 -23.828  0.00  0.00    +0.242 C 
ATOM     13  O   CYS A   8      19.621 -25.871 -23.520  0.00  0.00    -0.273 OA
ATOM     14  N   GLY A   9      20.071 -24.280 -25.052  0.00  0.00    -0.295 N 
ATOM     15  H   GLY A   9      20.513 -23.359 -25.247  0.00  0.00    +0.150 HD
BRANCH  14  16
ATOM     16  CA  GLY A   9      19.378 -24.982 -26.115  0.00  0.00    +0.176 C 
BRANCH  16  17
ATOM     17  C   GLY A   9      20.124 -26.281 -26.346  0.00  0.00    +0.243 C 
ATOM     18  O   GLY A   9      21.355 -26.306 -26.293  0.00  0.00    -0.273 OA
ATOM     19  N   ASN A  10      19.393 -27.358 -26.607  0.00  0.00    -0.297 N 
ATOM     20  H   ASN A  10      18.359 -27.270 -26.672  0.00  0.00    +0.150 HD
BRANCH  19  21
ATOM     21  CA  ASN A  10      20.016 -28.664 -26.804  0.00  0.00    +0.158 C 
BRANCH  21  22
ATOM     22  C   ASN A  10      20.873 -28.771 -28.061  0.00  0.00    +0.241 C 
ATOM     23  O   ASN A  10      21.634 -29.725 -28.210  0.00  0.00    -0.273 OA
ATOM     24  N   ALA A  11      20.762 -27.797 -28.958  0.00  0.00    -0.297 N 
ATOM     25  H   ALA A  11      20.120 -27.000 -28.774  0.00  0.00    +0.150 HD
BRANCH  24  26
ATOM     26  CA  ALA A  11      21.532 -27.833 -30.200  0.00  0.00    +0.149 C 
ATOM     27  CB  ALA A  11      20.623 -27.497 -31.380  0.00  0.00    +0.031 C 
BRANCH  26  28
ATOM     28  C   ALA A  11      22.767 -26.929 -30.221  0.00  0.00    +0.241 C 
ATOM     29  N   VAL A  12      22.980 -26.165 -29.155  0.00  0.00    -0.298 N 
ATOM     30  H   VAL A  12      22.311 -26.196 -28.359  0.00  0.00    +0.150 HD
ATOM     31  O   ALA A  11      23.518 -26.922 -31.199  0.00  0.00    -0.273 OA
BRANCH  29  32
ATOM     32  CA  VAL A  12      24.141 -25.283 -29.087  0.00  0.00    +0.137 C 
BRANCH  32  33
ATOM     33  CB  VAL A  12      24.102 -24.410 -27.809  0.00  0.00    +0.026 C 
ATOM     34  CG2 VAL A  12      25.381 -23.589 -27.688  0.00  0.00    +0.002 C 
ATOM     35  CG1 VAL A  12      22.883 -23.498 -27.847  0.00  0.00    +0.002 C 
ENDBRANCH  32  33
BRANCH  32  36
ATOM     36  C   VAL A  12      25.424 -26.120 -29.084  0.00  0.00    +0.227 C 
ATOM     37  O   VAL A  12      25.495 -27.149 -28.417  0.00  0.00    -0.286 OA
ENDBRANCH  32  36
ENDBRANCH  29  32
ENDBRANCH  26  28
ENDBRANCH  24  26
ENDBRANCH  21  22
BRANCH  21  38
ATOM     38  CB  ASN A  10      18.942 -29.761 -26.819  0.00  0.00    +0.114 C 
BRANCH  38  39
ATOM     39  CG  ASN A  10      18.185 -29.824 -28.133  0.00  0.00    +0.222 C 
ATOM     40  ND2 ASN A  10      17.064 -29.123 -28.205  0.00  0.00    -0.329 N 
ATOM     41 HD21 ASN A  10      16.741 -28.574 -27.383  0.00  0.00    +0.145 HD
ATOM     42 HD22 ASN A  10      16.507 -29.122 -29.083  0.00  0.00    +0.145 HD
ATOM     43  OD1 ASN A  10      18.609 -30.489 -29.076  0.00  0.00    -0.275 OA
ENDBRANCH  38  39
ENDBRANCH  21  38
ENDBRANCH  19  21
ENDBRANCH  16  17
ENDBRANCH  14  16
ENDBRANCH  11  12
BRANCH  11  44
ATOM     44  CB  CYS A   8      22.374 -23.869 -23.312  0.00  0.00    +0.098 C 
ATOM     45  SG  CYS A   8      22.944 -25.416 -23.962  0.00  0.00    -0.080 S 
ENDBRANCH  11  44
ENDBRANCH   9  11
ENDBRANCH   6   7
BRANCH   6  46
ATOM     46  CB  MET A   7      20.974 -25.781 -18.968  0.00  0.00    +0.041 C 
BRANCH  46  47
ATOM     47  CG  MET A   7      21.067 -26.252 -17.513  0.00  0.00    +0.060 C 
BRANCH  47  48
ATOM     48  SD  MET A   7      21.372 -24.910 -16.338  0.00  0.00    -0.139 S 
ATOM     49  CE  MET A   7      23.157 -24.638 -16.555  0.00  0.00    +0.069 C 
ENDBRANCH  47  48
ENDBRANCH  46  47
ENDBRANCH   6  46
ENDBRANCH   4   6
ENDBRANCH   1   2
BRANCH   1  52
ATOM     50  C   ASN A   5      14.497 -25.019 -16.529  0.00  0.00    +0.241 C 
ATOM     51  O   ASN A   5      14.237 -26.208 -16.742  0.00  0.00    -0.273 OA
ATOM     52  N   HIS A   6      15.535 -24.401 -17.072  0.00  0.00    -0.297 N 
ATOM     53  H   HIS A   6      15.753 -23.424 -16.790  0.00  0.00    +0.150 HD
BRANCH  50  54
ATOM     54  CA  ASN A   5      13.638 -24.178 -15.587  0.00  0.00    +0.158 C 
BRANCH  54  57
ATOM     55  C   ILE A   4      15.130 -23.295 -13.890  0.00  0.00    +0.241 C 
ATOM     56  O   ILE A   4      15.253 -24.398 -13.365  0.00  0.00    -0.273 OA
ATOM     57  N   ASN A   5      14.378 -23.092 -14.962  0.00  0.00    -0.297 N 
ATOM     58  H   ASN A   5      14.315 -22.136 -15.366  0.00  0.00    +0.150 HD
BRANCH  55  59
ATOM     59  CA  ILE A   4      15.851 -22.081 -13.317  0.00  0.00    +0.149 C 
BRANCH  59  61
ATOM     60  C   VAL A   3      16.567 -20.106 -14.547  0.00  0.00    +0.241 C 
ATOM     61  N   ILE A   4      15.593 -20.808 -13.977  0.00  0.00    -0.297 N 
ATOM     62  H   ILE A   4      14.621 -20.439 -14.003  0.00  0.00    +0.150 HD
ATOM     63  O   VAL A   3      17.725 -20.512 -14.628  0.00  0.00    -0.273 OA
BRANCH  60  64
ATOM     64  CA  VAL A   3      16.170 -18.749 -15.112  0.00  0.00    +0.149 C 
BRANCH  64  67
ATOM     65  C   ALA A   2      15.425 -17.358 -13.232  0.00  0.00    +0.241 C 
ATOM     66  O   ALA A   2      14.250 -17.719 -13.332  0.00  0.00    -0.273 OA
ATOM     67  N   VAL A   3      16.397 -17.795 -14.027  0.00  0.00    -0.297 N 
ATOM     68  H   VAL A   3      17.363 -17.442 -13.870  0.00  0.00    +0.150 HD
BRANCH  65  69
ATOM     69  CA  ALA A   2      15.851 -16.365 -12.156  0.00  0.00    +0.149 C 
ATOM     70  CB  ALA A   2      15.455 -16.894 -10.780  0.00  0.00    +0.031 C 
BRANCH  69  72
ATOM     71  C   ASP A   1      15.934 -14.093 -13.056  0.00  0.00    +0.239 C 
ATOM     72  N   ALA A   2      15.301 -15.024 -12.345  0.00  0.00    -0.297 N 
ATOM     73  H   ALA A   2      14.386 -14.789 -11.910  0.00  0.00    +0.150 HD
ATOM     74  O   ASP A   1      17.020 -14.292 -13.609  0.00  0.00    -0.274 OA
BRANCH  71  75
ATOM     75  CA  ASP A   1      15.260 -12.723 -13.140  0.00  0.00    +0.156 C 
BRANCH  75  76
ATOM     76  N   ASP A   1      15.979 -11.940 -12.143  0.00  0.00    -0.238 NA
ATOM     77  H   ASP A   1      16.724 -11.288 -12.461  0.00  0.00    +0.142 HD
ENDBRANCH  75  76
BRANCH  75  78
ATOM     78  CB  ASP A   1      15.480 -12.115 -14.526  0.00  0.00    +0.140 C 
BRANCH  78  79
ATOM     79  CG  ASP A   1      14.594 -12.729 -15.587  0.00  0.00    +0.367 C 
ATOM     80  OD2 ASP A   1      14.128 -13.873 -15.397  0.00  0.00    -0.246 OA
ATOM     81  OD1 ASP A   1      14.377 -12.064 -16.624  0.00  0.00    -0.246 OA
ENDBRANCH  78  79
ENDBRANCH  75  78
ENDBRANCH  71  75
ENDBRANCH  69  72
ENDBRANCH  65  69
ENDBRANCH  64  67
BRANCH  64  82
ATOM     82  CB  VAL A   3      17.055 -18.393 -16.327  0.00  0.00    +0.027 C 
ATOM     83  CG2 VAL A   3      16.882 -16.915 -16.671  0.00  0.00    +0.002 C 
ATOM     84  CG1 VAL A   3      16.703 -19.273 -17.513  0.00  0.00    +0.002 C 
ENDBRANCH  64  82
ENDBRANCH  60  64
ENDBRANCH  59  61
BRANCH  59  85
ATOM     85  CB  ILE A   4      15.492 -21.956 -11.822  0.00  0.00    +0.027 C 
ATOM     86  CG2 ILE A   4      16.324 -20.848 -11.186  0.00  0.00    +0.002 C 
BRANCH  85  87
ATOM     87  CG1 ILE A   4      14.004 -21.617 -11.677  0.00  0.00    +0.002 C 
ATOM     88  CD1 ILE A   4      13.503 -21.580 -10.252  0.00  0.00    +0.000 C 
ENDBRANCH  85  87
ENDBRANCH  59  85
ENDBRANCH  55  59
ENDBRANCH  54  57
BRANCH  54  89
ATOM     89  CB  ASN A   5      12.471 -23.603 -16.388  0.00  0.00    +0.114 C 
BRANCH  89  90
ATOM     90  CG  ASN A   5      11.807 -24.638 -17.269  0.00  0.00    +0.222 C 
ATOM     91  OD1 ASN A   5      11.214 -25.581 -16.770  0.00  0.00    -0.275 OA
ATOM     92  ND2 ASN A   5      11.903 -24.465 -18.584  0.00  0.00    -0.329 N 
ATOM     93 HD21 ASN A   5      12.419 -23.646 -18.964  0.00  0.00    +0.145 HD
ATOM     94 HD22 ASN A   5      11.462 -25.149 -19.232  0.00  0.00    +0.145 HD
ENDBRANCH  89  90
ENDBRANCH  54  89
ENDBRANCH  50  54
ENDBRANCH   1  52
BRANCH   1  95
ATOM     95  CB  HIS A   6      15.747 -24.833 -19.423  0.00  0.00    +0.076 C 
BRANCH  95  96
ATOM     96  CG  HIS A   6      15.444 -23.388 -19.687  0.00  0.00    +0.082 A 
ATOM     97  ND1 HIS A   6      14.224 -22.818 -19.386  0.00  0.00    -0.227 NA
ATOM     98  CE1 HIS A   6      14.277 -21.519 -19.621  0.00  0.00    +0.199 A 
ATOM     99  NE2 HIS A   6      15.485 -21.224 -20.068  0.00  0.00    -0.221 NA
ATOM    100  CD2 HIS A   6      16.233 -22.376 -20.123  0.00  0.00    +0.115 A 
ENDBRANCH  95  96
ENDBRANCH   1  95
TORSDOF 40
REMARK  Name = ../refined-set-2016/3old/3old_pocket.pdb
REMARK  264 active torsions:
REMARK  status: ('A' for Active; 'I' for Inactive)
REMARK    1  A    between atoms: _1  and  _3
REMARK    2  A    between atoms: _3  and  _4
REMARK    3  A    between atoms: _3  and  _6
REMARK    4  A    between atoms: _6  and  _7
REMARK    5  A    between atoms: _12  and  _14
REMARK    6  A    between atoms: _14  and  _15
REMARK    7  A    between atoms: _14  and  _17
REMARK    8  A    between atoms: _17  and  _18
REMARK    9  A    between atoms: _24  and  _26
REMARK   10  A    between atoms: _26  and  _27
REMARK   11  A    between atoms: _26  and  _29
REMARK   12  A    between atoms: _29  and  _30
REMARK   13  A    between atoms: _30  and  _31
REMARK   14  A    between atoms: _37  and  _38
REMARK   15  A    between atoms: _43  and  _45
REMARK   16  A    between atoms: _45  and  _46
REMARK   17  A    between atoms: _45  and  _48
REMARK   18  A    between atoms: _48  and  _49
REMARK   19  A    between atoms: _54  and  _56
REMARK   20  A    between atoms: _56  and  _57
REMARK   21  A    between atoms: _56  and  _59
REMARK   22  A    between atoms: _62  and  _64
REMARK   23  A    between atoms: _64  and  _65
REMARK   24  A    between atoms: _64  and  _67
REMARK   25  A    between atoms: _67  and  _68
REMARK   26  A    between atoms: _72  and  _73
REMARK   27  A    between atoms: _79  and  _80
REMARK   28  A    between atoms: _85  and  _87
REMARK   29  A    between atoms: _87  and  _88
REMARK   30  A    between atoms: _87  and  _90
REMARK   31  A    between atoms: _90  and  _91
REMARK   32  A    between atoms: _101  and  _103
REMARK   33  A    between atoms: _103  and  _104
REMARK   34  A    between atoms: _103  and  _106
REMARK   35  A    between atoms: _106  and  _107
REMARK   36  A    between atoms: _117  and  _119
REMARK   37  A    between atoms: _119  and  _120
REMARK   38  A    between atoms: _119  and  _122
REMARK   39  A    between atoms: _122  and  _123
REMARK   40  A    between atoms: _123  and  _124
REMARK   41  A    between atoms: _127  and  _129
REMARK   42  A    between atoms: _129  and  _130
REMARK   43  A    between atoms: _129  and  _132
REMARK   44  A    between atoms: _132  and  _133
REMARK   45  A    between atoms: _133  and  _134
REMARK   46  A    between atoms: _134  and  _135
REMARK   47  A    between atoms: _144  and  _146
REMARK   48  A    between atoms: _146  and  _147
REMARK   49  A    between atoms: _146  and  _149
REMARK   50  A    between atoms: _149  and  _150
REMARK   51  A    between atoms: _155  and  _156
REMARK   52  A    between atoms: _158  and  _160
REMARK   53  A    between atoms: _160  and  _161
REMARK   54  A    between atoms: _160  and  _163
REMARK   55  A    between atoms: _163  and  _164
REMARK   56  A    between atoms: _164  and  _165
REMARK   57  A    between atoms: _171  and  _172
REMARK   58  A    between atoms: _177  and  _179
REMARK   59  A    between atoms: _179  and  _180
REMARK   60  A    between atoms: _179  and  _182
REMARK   61  A    between atoms: _182  and  _183
REMARK   62  A    between atoms: _186  and  _188
REMARK   63  A    between atoms: _188  and  _189
REMARK   64  A    between atoms: _192  and  _194
REMARK   65  A    between atoms: _194  and  _195
REMARK   66  A    between atoms: _194  and  _197
REMARK   67  A    between atoms: _200  and  _202
REMARK   68  A    between atoms: _202  and  _203
REMARK   69  A    between atoms: _202  and  _205
REMARK   70  A    between atoms: _205  and  _206
REMARK   71  A    between atoms: _209  and  _211
REMARK   72  A    between atoms: _211  and  _212
REMARK   73  A    between atoms: _211  and  _214
REMARK   74  A    between atoms: _214  and  _215
REMARK   75  A    between atoms: _220  and  _222
REMARK   76  A    between atoms: _222  and  _223
REMARK   77  A    between atoms: _222  and  _225
REMARK   78  A    between atoms: _225  and  _226
REMARK   79  A    between atoms: _231  and  _233
REMARK   80  A    between atoms: _233  and  _234
REMARK   81  A    between atoms: _233  and  _236
REMARK   82  A    between atoms: _236  and  _237
REMARK   83  A    between atoms: _237  and  _238
REMARK   84  A    between atoms: _240  and  _242
REMARK   85  A    between atoms: _242  and  _243
REMARK   86  A    between atoms: _242  and  _245
REMARK   87  A    between atoms: _247  and  _249
REMARK   88  A    between atoms: _249  and  _250
REMARK   89  A    between atoms: _252  and  _254
REMARK   90  A    between atoms: _254  and  _255
REMARK   91  A    between atoms: _254  and  _257
REMARK   92  A    between atoms: _257  and  _258
REMARK   93  A    between atoms: _263  and  _265
REMARK   94  A    between atoms: _265  and  _266
REMARK   95  A    between atoms: _269  and  _271
REMARK   96  A    between atoms: _271  and  _272
REMARK   97  A    between atoms: _271  and  _274
REMARK   98  A    between atoms: _277  and  _279
REMARK   99  A    between atoms: _279  and  _280
REMARK  100  A    between atoms: _279  and  _282
REMARK  101  A    between atoms: _282  and  _283
REMARK  102  A    between atoms: _286  and  _288
REMARK  103  A    between atoms: _288  and  _289
REMARK  104  A    between atoms: _288  and  _291
REMARK  105  A    between atoms: _291  and  _292
REMARK  106  A    between atoms: _295  and  _297
REMARK  107  A    between atoms: _297  and  _298
REMARK  108  A    between atoms: _297  and  _300
REMARK  109  A    between atoms: _300  and  _301
REMARK  110  A    between atoms: _306  and  _307
REMARK  111  A    between atoms: _309  and  _311
REMARK  112  A    between atoms: _311  and  _312
REMARK  113  A    between atoms: _311  and  _314
REMARK  114  A    between atoms: _317  and  _319
REMARK  115  A    between atoms: _319  and  _320
REMARK  116  A    between atoms: _319  and  _322
REMARK  117  A    between atoms: _322  and  _323
REMARK  118  A    between atoms: _323  and  _324
REMARK  119  A    between atoms: _324  and  _325
REMARK  120  A    between atoms: _334  and  _336
REMARK  121  A    between atoms: _336  and  _337
REMARK  122  A    between atoms: _336  and  _339
REMARK  123  A    between atoms: _339  and  _340
REMARK  124  A    between atoms: _343  and  _345
REMARK  125  A    between atoms: _345  and  _346
REMARK  126  A    between atoms: _345  and  _348
REMARK  127  A    between atoms: _348  and  _349
REMARK  128  A    between atoms: _352  and  _354
REMARK  129  A    between atoms: _354  and  _355
REMARK  130  A    between atoms: _357  and  _359
REMARK  131  A    between atoms: _359  and  _360
REMARK  132  A    between atoms: _359  and  _362
REMARK  133  A    between atoms: _362  and  _363
REMARK  134  A    between atoms: _366  and  _368
REMARK  135  A    between atoms: _368  and  _369
REMARK  136  A    between atoms: _368  and  _371
REMARK  137  A    between atoms: _371  and  _372
REMARK  138  A    between atoms: _375  and  _377
REMARK  139  A    between atoms: _377  and  _378
REMARK  140  A    between atoms: _377  and  _380
REMARK  141  A    between atoms: _380  and  _381
REMARK  142  A    between atoms: _381  and  _382
REMARK  143  A    between atoms: _382  and  _383
REMARK  144  A    between atoms: _392  and  _394
REMARK  145  A    between atoms: _394  and  _395
REMARK  146  A    between atoms: _394  and  _397
REMARK  147  A    between atoms: _397  and  _398
REMARK  148  A    between atoms: _401  and  _403
REMARK  149  A    between atoms: _403  and  _404
REMARK  150  A    between atoms: _403  and  _406
REMARK  151  A    between atoms: _406  and  _407
REMARK  152  A    between atoms: _410  and  _412
REMARK  153  A    between atoms: _412  and  _413
REMARK  154  A    between atoms: _416  and  _418
REMARK  155  A    between atoms: _418  and  _419
REMARK  156  A    between atoms: _418  and  _421
REMARK  157  A    between atoms: _421  and  _422
REMARK  158  A    between atoms: _424  and  _426
REMARK  159  A    between atoms: _426  and  _427
REMARK  160  A    between atoms: _426  and  _429
REMARK  161  A    between atoms: _429  and  _430
REMARK  162  A    between atoms: _430  and  _431
REMARK  163  A    between atoms: _431  and  _432
REMARK  164  A    between atoms: _432  and  _433
REMARK  165  A    between atoms: _437  and  _439
REMARK  166  A    between atoms: _439  and  _440
REMARK  167  A    between atoms: _439  and  _442
REMARK  168  A    between atoms: _442  and  _443
REMARK  169  A    between atoms: _448  and  _450
REMARK  170  A    between atoms: _450  and  _451
REMARK  171  A    between atoms: _450  and  _453
REMARK  172  A    between atoms: _453  and  _454
REMARK  173  A    between atoms: _454  and  _455
REMARK  174  A    between atoms: _457  and  _459
REMARK  175  A    between atoms: _459  and  _460
REMARK  176  A    between atoms: _459  and  _462
REMARK  177  A    between atoms: _462  and  _463
REMARK  178  A    between atoms: _463  and  _464
REMARK  179  A    between atoms: _467  and  _469
REMARK  180  A    between atoms: _469  and  _470
REMARK  181  A    between atoms: _469  and  _472
REMARK  182  A    between atoms: _475  and  _477
REMARK  183  A    between atoms: _477  and  _478
REMARK  184  A    between atoms: _477  and  _480
REMARK  185  A    between atoms: _480  and  _481
REMARK  186  A    between atoms: _484  and  _486
REMARK  187  A    between atoms: _486  and  _487
REMARK  188  A    between atoms: _486  and  _489
REMARK  189  A    between atoms: _489  and  _490
REMARK  190  A    between atoms: _493  and  _495
REMARK  191  A    between atoms: _495  and  _496
REMARK  192  A    between atoms: _495  and  _498
REMARK  193  A    between atoms: _498  and  _499
REMARK  194  A    between atoms: _502  and  _504
REMARK  195  A    between atoms: _504  and  _505
REMARK  196  A    between atoms: _507  and  _509
REMARK  197  A    between atoms: _509  and  _510
REMARK  198  A    between atoms: _512  and  _514
REMARK  199  A    between atoms: _514  and  _515
REMARK  200  A    between atoms: _514  and  _517
REMARK  201  A    between atoms: _517  and  _518
REMARK  202  A    between atoms: _518  and  _519
REMARK  203  A    between atoms: _522  and  _524
REMARK  204  A    between atoms: _524  and  _525
REMARK  205  A    between atoms: _524  and  _527
REMARK  206  A    between atoms: _527  and  _528
REMARK  207  A    between atoms: _531  and  _533
REMARK  208  A    between atoms: _533  and  _534
REMARK  209  A    between atoms: _533  and  _536
REMARK  210  A    between atoms: _536  and  _537
REMARK  211  A    between atoms: _543  and  _545
REMARK  212  A    between atoms: _545  and  _546
REMARK  213  A    between atoms: _549  and  _551
REMARK  214  A    between atoms: _551  and  _552
REMARK  215  A    between atoms: _551  and  _554
REMARK  216  A    between atoms: _554  and  _555
REMARK  217  A    between atoms: _560  and  _562
REMARK  218  A    between atoms: _562  and  _563
REMARK  219  A    between atoms: _562  and  _565
REMARK  220  A    between atoms: _565  and  _566
REMARK  221  A    between atoms: _571  and  _573
REMARK  222  A    between atoms: _573  and  _574
REMARK  223  A    between atoms: _573  and  _576
REMARK  224  A    between atoms: _576  and  _577
REMARK  225  A    between atoms: _580  and  _582
REMARK  226  A    between atoms: _582  and  _583
REMARK  227  A    between atoms: _582  and  _585
REMARK  228  A    between atoms: _585  and  _586
REMARK  229  A    between atoms: _591  and  _593
REMARK  230  A    between atoms: _593  and  _594
REMARK  231  A    between atoms: _593  and  _596
REMARK  232  A    between atoms: _596  and  _597
REMARK  233  A    between atoms: _597  and  _598
REMARK  234  A    between atoms: _598  and  _599
REMARK  235  A    between atoms: _608  and  _610
REMARK  236  A    between atoms: _610  and  _611
REMARK  237  A    between atoms: _613  and  _615
REMARK  238  A    between atoms: _615  and  _616
REMARK  239  A    between atoms: _615  and  _618
REMARK  240  A    between atoms: _618  and  _619
REMARK  241  A    between atoms: _624  and  _626
REMARK  242  A    between atoms: _626  and  _627
REMARK  243  A    between atoms: _629  and  _631
REMARK  244  A    between atoms: _631  and  _632
REMARK  245  A    between atoms: _635  and  _637
REMARK  246  A    between atoms: _637  and  _638
REMARK  247  A    between atoms: _640  and  _642
REMARK  248  A    between atoms: _642  and  _643
REMARK  249  A    between atoms: _645  and  _647
REMARK  250  A    between atoms: _647  and  _648
REMARK  251  A    between atoms: _651  and  _653
REMARK  252  A    between atoms: _653  and  _654
REMARK  253  A    between atoms: _653  and  _656
REMARK  254  A    between atoms: _656  and  _657
REMARK  255  A    between atoms: _657  and  _658
REMARK  256  A    between atoms: _658  and  _659
REMARK  257  A    between atoms: _668  and  _670
REMARK  258  A    between atoms: _670  and  _671
REMARK  259  A    between atoms: _670  and  _673
REMARK  260  A    between atoms: _673  and  _674
REMARK  261  A    between atoms: _677  and  _679
REMARK  262  A    between atoms: _679  and  _680
REMARK  263  A    between atoms: _679  and  _682
REMARK  264  A    between atoms: _682  and  _683
REMARK                            x       y       z     vdW  Elec       q    Type
REMARK                         _______ _______ _______ _____ _____    ______ ____
ROOT
ATOM      1  C   ASP A   1       8.634 -30.409 -26.878  0.00  0.00    +0.239 C 
ATOM      2  N   ILE A   2       8.260 -29.258 -26.337  0.00  0.00    -0.298 N 
ATOM      3  H   ILE A   2       8.984 -28.546 -26.111  0.00  0.00    +0.150 HD
ATOM      4  O   ASP A   1       7.843 -31.315 -27.144  0.00  0.00    -0.274 OA
ENDROOT
BRANCH   1   5
ATOM      5  CA  ASP A   1      10.124 -30.553 -27.166  0.00  0.00    +0.156 C 
BRANCH   5   6
ATOM      6  N   ASP A   1      10.434 -31.948 -27.458  0.00  0.00    -0.238 NA
ATOM      7  H   ASP A   1      10.174 -32.342 -28.385  0.00  0.00    +0.142 HD
ENDBRANCH   5   6
BRANCH   5   8
ATOM      8  CB  ASP A   1      10.458 -29.640 -28.353  0.00  0.00    +0.140 C 
BRANCH   8   9
ATOM      9  CG  ASP A   1      11.948 -29.498 -28.598  0.00  0.00    +0.367 C 
ATOM     10  OD2 ASP A   1      12.749 -29.880 -27.723  0.00  0.00    -0.246 OA
ATOM     11  OD1 ASP A   1      12.316 -28.984 -29.677  0.00  0.00    -0.246 OA
ENDBRANCH   8   9
ENDBRANCH   5   8
ENDBRANCH   1   5
BRANCH   2  12
ATOM     12  CA  ILE A   2       6.865 -28.965 -26.051  0.00  0.00    +0.137 C 
BRANCH  12  13
ATOM     13  CB  ILE A   2       6.740 -27.682 -25.214  0.00  0.00    +0.026 C 
ATOM     14  CG2 ILE A   2       5.280 -27.286 -25.067  0.00  0.00    +0.002 C 
BRANCH  13  15
ATOM     15  CG1 ILE A   2       7.372 -27.903 -23.839  0.00  0.00    +0.002 C 
ATOM     16  CD1 ILE A   2       7.291 -26.689 -22.924  0.00  0.00    +0.000 C 
ENDBRANCH  13  15
ENDBRANCH  12  13
BRANCH  12  17
ATOM     17  C   ILE A   2       6.185 -28.771 -27.407  0.00  0.00    +0.227 C 
ATOM     18  O   ILE A   2       6.602 -27.933 -28.204  0.00  0.00    -0.286 OA
ENDBRANCH  12  17
ENDBRANCH   2  12
TORSDOF 8
REMARK  Name = ../refined-set-2016/3old/3old_pocket.pdb
REMARK  264 active torsions:
REMARK  status: ('A' for Active; 'I' for Inactive)
REMARK    1  A    between atoms: _1  and  _3
REMARK    2  A    between atoms: _3  and  _4
REMARK    3  A    between atoms: _3  and  _6
REMARK    4  A    between atoms: _6  and  _7
REMARK    5  A    between atoms: _12  and  _14
REMARK    6  A    between atoms: _14  and  _15
REMARK    7  A    between atoms: _14  and  _17
REMARK    8  A    between atoms: _17  and  _18
REMARK    9  A    between atoms: _24  and  _26
REMARK   10  A    between atoms: _26  and  _27
REMARK   11  A    between atoms: _26  and  _29
REMARK   12  A    between atoms: _29  and  _30
REMARK   13  A    between atoms: _30  and  _31
REMARK   14  A    between atoms: _37  and  _38
REMARK   15  A    between atoms: _43  and  _45
REMARK   16  A    between atoms: _45  and  _46
REMARK   17  A    between atoms: _45  and  _48
REMARK   18  A    between atoms: _48  and  _49
REMARK   19  A    between atoms: _54  and  _56
REMARK   20  A    between atoms: _56  and  _57
REMARK   21  A    between atoms: _56  and  _59
REMARK   22  A    between atoms: _62  and  _64
REMARK   23  A    between atoms: _64  and  _65
REMARK   24  A    between atoms: _64  and  _67
REMARK   25  A    between atoms: _67  and  _68
REMARK   26  A    between atoms: _72  and  _73
REMARK   27  A    between atoms: _79  and  _80
REMARK   28  A    between atoms: _85  and  _87
REMARK   29  A    between atoms: _87  and  _88
REMARK   30  A    between atoms: _87  and  _90
REMARK   31  A    between atoms: _90  and  _91
REMARK   32  A    between atoms: _101  and  _103
REMARK   33  A    between atoms: _103  and  _104
REMARK   34  A    between atoms: _103  and  _106
REMARK   35  A    between atoms: _106  and  _107
REMARK   36  A    between atoms: _117  and  _119
REMARK   37  A    between atoms: _119  and  _120
REMARK   38  A    between atoms: _119  and  _122
REMARK   39  A    between atoms: _122  and  _123
REMARK   40  A    between atoms: _123  and  _124
REMARK   41  A    between atoms: _127  and  _129
REMARK   42  A    between atoms: _129  and  _130
REMARK   43  A    between atoms: _129  and  _132
REMARK   44  A    between atoms: _132  and  _133
REMARK   45  A    between atoms: _133  and  _134
REMARK   46  A    between atoms: _134  and  _135
REMARK   47  A    between atoms: _144  and  _146
REMARK   48  A    between atoms: _146  and  _147
REMARK   49  A    between atoms: _146  and  _149
REMARK   50  A    between atoms: _149  and  _150
REMARK   51  A    between atoms: _155  and  _156
REMARK   52  A    between atoms: _158  and  _160
REMARK   53  A    between atoms: _160  and  _161
REMARK   54  A    between atoms: _160  and  _163
REMARK   55  A    between atoms: _163  and  _164
REMARK   56  A    between atoms: _164  and  _165
REMARK   57  A    between atoms: _171  and  _172
REMARK   58  A    between atoms: _177  and  _179
REMARK   59  A    between atoms: _179  and  _180
REMARK   60  A    between atoms: _179  and  _182
REMARK   61  A    between atoms: _182  and  _183
REMARK   62  A    between atoms: _186  and  _188
REMARK   63  A    between atoms: _188  and  _189
REMARK   64  A    between atoms: _192  and  _194
REMARK   65  A    between atoms: _194  and  _195
REMARK   66  A    between atoms: _194  and  _197
REMARK   67  A    between atoms: _200  and  _202
REMARK   68  A    between atoms: _202  and  _203
REMARK   69  A    between atoms: _202  and  _205
REMARK   70  A    between atoms: _205  and  _206
REMARK   71  A    between atoms: _209  and  _211
REMARK   72  A    between atoms: _211  and  _212
REMARK   73  A    between atoms: _211  and  _214
REMARK   74  A    between atoms: _214  and  _215
REMARK   75  A    between atoms: _220  and  _222
REMARK   76  A    between atoms: _222  and  _223
REMARK   77  A    between atoms: _222  and  _225
REMARK   78  A    between atoms: _225  and  _226
REMARK   79  A    between atoms: _231  and  _233
REMARK   80  A    between atoms: _233  and  _234
REMARK   81  A    between atoms: _233  and  _236
REMARK   82  A    between atoms: _236  and  _237
REMARK   83  A    between atoms: _237  and  _238
REMARK   84  A    between atoms: _240  and  _242
REMARK   85  A    between atoms: _242  and  _243
REMARK   86  A    between atoms: _242  and  _245
REMARK   87  A    between atoms: _247  and  _249
REMARK   88  A    between atoms: _249  and  _250
REMARK   89  A    between atoms: _252  and  _254
REMARK   90  A    between atoms: _254  and  _255
REMARK   91  A    between atoms: _254  and  _257
REMARK   92  A    between atoms: _257  and  _258
REMARK   93  A    between atoms: _263  and  _265
REMARK   94  A    between atoms: _265  and  _266
REMARK   95  A    between atoms: _269  and  _271
REMARK   96  A    between atoms: _271  and  _272
REMARK   97  A    between atoms: _271  and  _274
REMARK   98  A    between atoms: _277  and  _279
REMARK   99  A    between atoms: _279  and  _280
REMARK  100  A    between atoms: _279  and  _282
REMARK  101  A    between atoms: _282  and  _283
REMARK  102  A    between atoms: _286  and  _288
REMARK  103  A    between atoms: _288  and  _289
REMARK  104  A    between atoms: _288  and  _291
REMARK  105  A    between atoms: _291  and  _292
REMARK  106  A    between atoms: _295  and  _297
REMARK  107  A    between atoms: _297  and  _298
REMARK  108  A    between atoms: _297  and  _300
REMARK  109  A    between atoms: _300  and  _301
REMARK  110  A    between atoms: _306  and  _307
REMARK  111  A    between atoms: _309  and  _311
REMARK  112  A    between atoms: _311  and  _312
REMARK  113  A    between atoms: _311  and  _314
REMARK  114  A    between atoms: _317  and  _319
REMARK  115  A    between atoms: _319  and  _320
REMARK  116  A    between atoms: _319  and  _322
REMARK  117  A    between atoms: _322  and  _323
REMARK  118  A    between atoms: _323  and  _324
REMARK  119  A    between atoms: _324  and  _325
REMARK  120  A    between atoms: _334  and  _336
REMARK  121  A    between atoms: _336  and  _337
REMARK  122  A    between atoms: _336  and  _339
REMARK  123  A    between atoms: _339  and  _340
REMARK  124  A    between atoms: _343  and  _345
REMARK  125  A    between atoms: _345  and  _346
REMARK  126  A    between atoms: _345  and  _348
REMARK  127  A    between atoms: _348  and  _349
REMARK  128  A    between atoms: _352  and  _354
REMARK  129  A    between atoms: _354  and  _355
REMARK  130  A    between atoms: _357  and  _359
REMARK  131  A    between atoms: _359  and  _360
REMARK  132  A    between atoms: _359  and  _362
REMARK  133  A    between atoms: _362  and  _363
REMARK  134  A    between atoms: _366  and  _368
REMARK  135  A    between atoms: _368  and  _369
REMARK  136  A    between atoms: _368  and  _371
REMARK  137  A    between atoms: _371  and  _372
REMARK  138  A    between atoms: _375  and  _377
REMARK  139  A    between atoms: _377  and  _378
REMARK  140  A    between atoms: _377  and  _380
REMARK  141  A    between atoms: _380  and  _381
REMARK  142  A    between atoms: _381  and  _382
REMARK  143  A    between atoms: _382  and  _383
REMARK  144  A    between atoms: _392  and  _394
REMARK  145  A    between atoms: _394  and  _395
REMARK  146  A    between atoms: _394  and  _397
REMARK  147  A    between atoms: _397  and  _398
REMARK  148  A    between atoms: _401  and  _403
REMARK  149  A    between atoms: _403  and  _404
REMARK  150  A    between atoms: _403  and  _406
REMARK  151  A    between atoms: _406  and  _407
REMARK  152  A    between atoms: _410  and  _412
REMARK  153  A    between atoms: _412  and  _413
REMARK  154  A    between atoms: _416  and  _418
REMARK  155  A    between atoms: _418  and  _419
REMARK  156  A    between atoms: _418  and  _421
REMARK  157  A    between atoms: _421  and  _422
REMARK  158  A    between atoms: _424  and  _426
REMARK  159  A    between atoms: _426  and  _427
REMARK  160  A    between atoms: _426  and  _429
REMARK  161  A    between atoms: _429  and  _430
REMARK  162  A    between atoms: _430  and  _431
REMARK  163  A    between atoms: _431  and  _432
REMARK  164  A    between atoms: _432  and  _433
REMARK  165  A    between atoms: _437  and  _439
REMARK  166  A    between atoms: _439  and  _440
REMARK  167  A    between atoms: _439  and  _442
REMARK  168  A    between atoms: _442  and  _443
REMARK  169  A    between atoms: _448  and  _450
REMARK  170  A    between atoms: _450  and  _451
REMARK  171  A    between atoms: _450  and  _453
REMARK  172  A    between atoms: _453  and  _454
REMARK  173  A    between atoms: _454  and  _455
REMARK  174  A    between atoms: _457  and  _459
REMARK  175  A    between atoms: _459  and  _460
REMARK  176  A    between atoms: _459  and  _462
REMARK  177  A    between atoms: _462  and  _463
REMARK  178  A    between atoms: _463  and  _464
REMARK  179  A    between atoms: _467  and  _469
REMARK  180  A    between atoms: _469  and  _470
REMARK  181  A    between atoms: _469  and  _472
REMARK  182  A    between atoms: _475  and  _477
REMARK  183  A    between atoms: _477  and  _478
REMARK  184  A    between atoms: _477  and  _480
REMARK  185  A    between atoms: _480  and  _481
REMARK  186  A    between atoms: _484  and  _486
REMARK  187  A    between atoms: _486  and  _487
REMARK  188  A    between atoms: _486  and  _489
REMARK  189  A    between atoms: _489  and  _490
REMARK  190  A    between atoms: _493  and  _495
REMARK  191  A    between atoms: _495  and  _496
REMARK  192  A    between atoms: _495  and  _498
REMARK  193  A    between atoms: _498  and  _499
REMARK  194  A    between atoms: _502  and  _504
REMARK  195  A    between atoms: _504  and  _505
REMARK  196  A    between atoms: _507  and  _509
REMARK  197  A    between atoms: _509  and  _510
REMARK  198  A    between atoms: _512  and  _514
REMARK  199  A    between atoms: _514  and  _515
REMARK  200  A    between atoms: _514  and  _517
REMARK  201  A    between atoms: _517  and  _518
REMARK  202  A    between atoms: _518  and  _519
REMARK  203  A    between atoms: _522  and  _524
REMARK  204  A    between atoms: _524  and  _525
REMARK  205  A    between atoms: _524  and  _527
REMARK  206  A    between atoms: _527  and  _528
REMARK  207  A    between atoms: _531  and  _533
REMARK  208  A    between atoms: _533  and  _534
REMARK  209  A    between atoms: _533  and  _536
REMARK  210  A    between atoms: _536  and  _537
REMARK  211  A    between atoms: _543  and  _545
REMARK  212  A    between atoms: _545  and  _546
REMARK  213  A    between atoms: _549  and  _551
REMARK  214  A    between atoms: _551  and  _552
REMARK  215  A    between atoms: _551  and  _554
REMARK  216  A    between atoms: _554  and  _555
REMARK  217  A    between atoms: _560  and  _562
REMARK  218  A    between atoms: _562  and  _563
REMARK  219  A    between atoms: _562  and  _565
REMARK  220  A    between atoms: _565  and  _566
REMARK  221  A    between atoms: _571  and  _573
REMARK  222  A    between atoms: _573  and  _574
REMARK  223  A    between atoms: _573  and  _576
REMARK  224  A    between atoms: _576  and  _577
REMARK  225  A    between atoms: _580  and  _582
REMARK  226  A    between atoms: _582  and  _583
REMARK  227  A    between atoms: _582  and  _585
REMARK  228  A    between atoms: _585  and  _586
REMARK  229  A    between atoms: _591  and  _593
REMARK  230  A    between atoms: _593  and  _594
REMARK  231  A    between atoms: _593  and  _596
REMARK  232  A    between atoms: _596  and  _597
REMARK  233  A    between atoms: _597  and  _598
REMARK  234  A    between atoms: _598  and  _599
REMARK  235  A    between atoms: _608  and  _610
REMARK  236  A    between atoms: _610  and  _611
REMARK  237  A    between atoms: _613  and  _615
REMARK  238  A    between atoms: _615  and  _616
REMARK  239  A    between atoms: _615  and  _618
REMARK  240  A    between atoms: _618  and  _619
REMARK  241  A    between atoms: _624  and  _626
REMARK  242  A    between atoms: _626  and  _627
REMARK  243  A    between atoms: _629  and  _631
REMARK  244  A    between atoms: _631  and  _632
REMARK  245  A    between atoms: _635  and  _637
REMARK  246  A    between atoms: _637  and  _638
REMARK  247  A    between atoms: _640  and  _642
REMARK  248  A    between atoms: _642  and  _643
REMARK  249  A    between atoms: _645  and  _647
REMARK  250  A    between atoms: _647  and  _648
REMARK  251  A    between atoms: _651  and  _653
REMARK  252  A    between atoms: _653  and  _654
REMARK  253  A    between atoms: _653  and  _656
REMARK  254  A    between atoms: _656  and  _657
REMARK  255  A    between atoms: _657  and  _658
REMARK  256  A    between atoms: _658  and  _659
REMARK  257  A    between atoms: _668  and  _670
REMARK  258  A    between atoms: _670  and  _671
REMARK  259  A    between atoms: _670  and  _673
REMARK  260  A    between atoms: _673  and  _674
REMARK  261  A    between atoms: _677  and  _679
REMARK  262  A    between atoms: _679  and  _680
REMARK  263  A    between atoms: _679  and  _682
REMARK  264  A    between atoms: _682  and  _683
REMARK                            x       y       z     vdW  Elec       q    Type
REMARK                         _______ _______ _______ _____ _____    ______ ____
ROOT
ATOM      1  CG  TYR A   1       1.347 -24.304 -24.789  0.00  0.00    -0.020 A 
ATOM      2  CD2 TYR A   1       1.915 -23.879 -23.585  0.00  0.00    -0.001 A 
ATOM      3  CE2 TYR A   1       3.230 -23.431 -23.528  0.00  0.00    +0.036 A 
ATOM      4  CZ  TYR A   1       3.995 -23.407 -24.685  0.00  0.00    +0.134 A 
ATOM      5  CE1 TYR A   1       3.454 -23.816 -25.895  0.00  0.00    +0.036 A 
ATOM      6  CD1 TYR A   1       2.133 -24.258 -25.941  0.00  0.00    -0.001 A 
ENDROOT
BRANCH   4   7
ATOM      7  OH  TYR A   1       5.305 -23.004 -24.620  0.00  0.00    -0.506 OA
ATOM      8  HH  TYR A   1       5.524 -22.748 -23.689  0.00  0.00    +0.292 HD
ENDBRANCH   4   7
BRANCH   1   9
ATOM      9  CB  TYR A   1      -0.043 -24.897 -24.824  0.00  0.00    +0.051 C 
BRANCH   9  10
ATOM     10  CA  TYR A   1      -0.018 -26.423 -24.702  0.00  0.00    +0.137 C 
BRANCH  10  11
ATOM     11  N   TYR A   1       0.297 -27.024 -25.997  0.00  0.00    -0.239 NA
ATOM     12  H   TYR A   1       0.242 -26.444 -26.859  0.00  0.00    +0.142 HD
ENDBRANCH  10  11
BRANCH  10  13
ATOM     13  C   TYR A   1      -1.296 -26.918 -24.029  0.00  0.00    +0.224 C 
ATOM     14  O   TYR A   1      -1.587 -26.523 -22.902  0.00  0.00    -0.287 OA
ENDBRANCH  10  13
ENDBRANCH   9  10
ENDBRANCH   1   9
TORSDOF 5
REMARK  Name = ../refined-set-2016/3old/3old_pocket.pdb
REMARK  264 active torsions:
REMARK  status: ('A' for Active; 'I' for Inactive)
REMARK    1  A    between atoms: _1  and  _3
REMARK    2  A    between atoms: _3  and  _4
REMARK    3  A    between atoms: _3  and  _6
REMARK    4  A    between atoms: _6  and  _7
REMARK    5  A    between atoms: _12  and  _14
REMARK    6  A    between atoms: _14  and  _15
REMARK    7  A    between atoms: _14  and  _17
REMARK    8  A    between atoms: _17  and  _18
REMARK    9  A    between atoms: _24  and  _26
REMARK   10  A    between atoms: _26  and  _27
REMARK   11  A    between atoms: _26  and  _29
REMARK   12  A    between atoms: _29  and  _30
REMARK   13  A    between atoms: _30  and  _31
REMARK   14  A    between atoms: _37  and  _38
REMARK   15  A    between atoms: _43  and  _45
REMARK   16  A    between atoms: _45  and  _46
REMARK   17  A    between atoms: _45  and  _48
REMARK   18  A    between atoms: _48  and  _49
REMARK   19  A    between atoms: _54  and  _56
REMARK   20  A    between atoms: _56  and  _57
REMARK   21  A    between atoms: _56  and  _59
REMARK   22  A    between atoms: _62  and  _64
REMARK   23  A    between atoms: _64  and  _65
REMARK   24  A    between atoms: _64  and  _67
REMARK   25  A    between atoms: _67  and  _68
REMARK   26  A    between atoms: _72  and  _73
REMARK   27  A    between atoms: _79  and  _80
REMARK   28  A    between atoms: _85  and  _87
REMARK   29  A    between atoms: _87  and  _88
REMARK   30  A    between atoms: _87  and  _90
REMARK   31  A    between atoms: _90  and  _91
REMARK   32  A    between atoms: _101  and  _103
REMARK   33  A    between atoms: _103  and  _104
REMARK   34  A    between atoms: _103  and  _106
REMARK   35  A    between atoms: _106  and  _107
REMARK   36  A    between atoms: _117  and  _119
REMARK   37  A    between atoms: _119  and  _120
REMARK   38  A    between atoms: _119  and  _122
REMARK   39  A    between atoms: _122  and  _123
REMARK   40  A    between atoms: _123  and  _124
REMARK   41  A    between atoms: _127  and  _129
REMARK   42  A    between atoms: _129  and  _130
REMARK   43  A    between atoms: _129  and  _132
REMARK   44  A    between atoms: _132  and  _133
REMARK   45  A    between atoms: _133  and  _134
REMARK   46  A    between atoms: _134  and  _135
REMARK   47  A    between atoms: _144  and  _146
REMARK   48  A    between atoms: _146  and  _147
REMARK   49  A    between atoms: _146  and  _149
REMARK   50  A    between atoms: _149  and  _150
REMARK   51  A    between atoms: _155  and  _156
REMARK   52  A    between atoms: _158  and  _160
REMARK   53  A    between atoms: _160  and  _161
REMARK   54  A    between atoms: _160  and  _163
REMARK   55  A    between atoms: _163  and  _164
REMARK   56  A    between atoms: _164  and  _165
REMARK   57  A    between atoms: _171  and  _172
REMARK   58  A    between atoms: _177  and  _179
REMARK   59  A    between atoms: _179  and  _180
REMARK   60  A    between atoms: _179  and  _182
REMARK   61  A    between atoms: _182  and  _183
REMARK   62  A    between atoms: _186  and  _188
REMARK   63  A    between atoms: _188  and  _189
REMARK   64  A    between atoms: _192  and  _194
REMARK   65  A    between atoms: _194  and  _195
REMARK   66  A    between atoms: _194  and  _197
REMARK   67  A    between atoms: _200  and  _202
REMARK   68  A    between atoms: _202  and  _203
REMARK   69  A    between atoms: _202  and  _205
REMARK   70  A    between atoms: _205  and  _206
REMARK   71  A    between atoms: _209  and  _211
REMARK   72  A    between atoms: _211  and  _212
REMARK   73  A    between atoms: _211  and  _214
REMARK   74  A    between atoms: _214  and  _215
REMARK   75  A    between atoms: _220  and  _222
REMARK   76  A    between atoms: _222  and  _223
REMARK   77  A    between atoms: _222  and  _225
REMARK   78  A    between atoms: _225  and  _226
REMARK   79  A    between atoms: _231  and  _233
REMARK   80  A    between atoms: _233  and  _234
REMARK   81  A    between atoms: _233  and  _236
REMARK   82  A    between atoms: _236  and  _237
REMARK   83  A    between atoms: _237  and  _238
REMARK   84  A    between atoms: _240  and  _242
REMARK   85  A    between atoms: _242  and  _243
REMARK   86  A    between atoms: _242  and  _245
REMARK   87  A    between atoms: _247  and  _249
REMARK   88  A    between atoms: _249  and  _250
REMARK   89  A    between atoms: _252  and  _254
REMARK   90  A    between atoms: _254  and  _255
REMARK   91  A    between atoms: _254  and  _257
REMARK   92  A    between atoms: _257  and  _258
REMARK   93  A    between atoms: _263  and  _265
REMARK   94  A    between atoms: _265  and  _266
REMARK   95  A    between atoms: _269  and  _271
REMARK   96  A    between atoms: _271  and  _272
REMARK   97  A    between atoms: _271  and  _274
REMARK   98  A    between atoms: _277  and  _279
REMARK   99  A    between atoms: _279  and  _280
REMARK  100  A    between atoms: _279  and  _282
REMARK  101  A    between atoms: _282  and  _283
REMARK  102  A    between atoms: _286  and  _288
REMARK  103  A    between atoms: _288  and  _289
REMARK  104  A    between atoms: _288  and  _291
REMARK  105  A    between atoms: _291  and  _292
REMARK  106  A    between atoms: _295  and  _297
REMARK  107  A    between atoms: _297  and  _298
REMARK  108  A    between atoms: _297  and  _300
REMARK  109  A    between atoms: _300  and  _301
REMARK  110  A    between atoms: _306  and  _307
REMARK  111  A    between atoms: _309  and  _311
REMARK  112  A    between atoms: _311  and  _312
REMARK  113  A    between atoms: _311  and  _314
REMARK  114  A    between atoms: _317  and  _319
REMARK  115  A    between atoms: _319  and  _320
REMARK  116  A    between atoms: _319  and  _322
REMARK  117  A    between atoms: _322  and  _323
REMARK  118  A    between atoms: _323  and  _324
REMARK  119  A    between atoms: _324  and  _325
REMARK  120  A    between atoms: _334  and  _336
REMARK  121  A    between atoms: _336  and  _337
REMARK  122  A    between atoms: _336  and  _339
REMARK  123  A    between atoms: _339  and  _340
REMARK  124  A    between atoms: _343  and  _345
REMARK  125  A    between atoms: _345  and  _346
REMARK  126  A    between atoms: _345  and  _348
REMARK  127  A    between atoms: _348  and  _349
REMARK  128  A    between atoms: _352  and  _354
REMARK  129  A    between atoms: _354  and  _355
REMARK  130  A    between atoms: _357  and  _359
REMARK  131  A    between atoms: _359  and  _360
REMARK  132  A    between atoms: _359  and  _362
REMARK  133  A    between atoms: _362  and  _363
REMARK  134  A    between atoms: _366  and  _368
REMARK  135  A    between atoms: _368  and  _369
REMARK  136  A    between atoms: _368  and  _371
REMARK  137  A    between atoms: _371  and  _372
REMARK  138  A    between atoms: _375  and  _377
REMARK  139  A    between atoms: _377  and  _378
REMARK  140  A    between atoms: _377  and  _380
REMARK  141  A    between atoms: _380  and  _381
REMARK  142  A    between atoms: _381  and  _382
REMARK  143  A    between atoms: _382  and  _383
REMARK  144  A    between atoms: _392  and  _394
REMARK  145  A    between atoms: _394  and  _395
REMARK  146  A    between atoms: _394  and  _397
REMARK  147  A    between atoms: _397  and  _398
REMARK  148  A    between atoms: _401  and  _403
REMARK  149  A    between atoms: _403  and  _404
REMARK  150  A    between atoms: _403  and  _406
REMARK  151  A    between atoms: _406  and  _407
REMARK  152  A    between atoms: _410  and  _412
REMARK  153  A    between atoms: _412  and  _413
REMARK  154  A    between atoms: _416  and  _418
REMARK  155  A    between atoms: _418  and  _419
REMARK  156  A    between atoms: _418  and  _421
REMARK  157  A    between atoms: _421  and  _422
REMARK  158  A    between atoms: _424  and  _426
REMARK  159  A    between atoms: _426  and  _427
REMARK  160  A    between atoms: _426  and  _429
REMARK  161  A    between atoms: _429  and  _430
REMARK  162  A    between atoms: _430  and  _431
REMARK  163  A    between atoms: _431  and  _432
REMARK  164  A    between atoms: _432  and  _433
REMARK  165  A    between atoms: _437  and  _439
REMARK  166  A    between atoms: _439  and  _440
REMARK  167  A    between atoms: _439  and  _442
REMARK  168  A    between atoms: _442  and  _443
REMARK  169  A    between atoms: _448  and  _450
REMARK  170  A    between atoms: _450  and  _451
REMARK  171  A    between atoms: _450  and  _453
REMARK  172  A    between atoms: _453  and  _454
REMARK  173  A    between atoms: _454  and  _455
REMARK  174  A    between atoms: _457  and  _459
REMARK  175  A    between atoms: _459  and  _460
REMARK  176  A    between atoms: _459  and  _462
REMARK  177  A    between atoms: _462  and  _463
REMARK  178  A    between atoms: _463  and  _464
REMARK  179  A    between atoms: _467  and  _469
REMARK  180  A    between atoms: _469  and  _470
REMARK  181  A    between atoms: _469  and  _472
REMARK  182  A    between atoms: _475  and  _477
REMARK  183  A    between atoms: _477  and  _478
REMARK  184  A    between atoms: _477  and  _480
REMARK  185  A    between atoms: _480  and  _481
REMARK  186  A    between atoms: _484  and  _486
REMARK  187  A    between atoms: _486  and  _487
REMARK  188  A    between atoms: _486  and  _489
REMARK  189  A    between atoms: _489  and  _490
REMARK  190  A    between atoms: _493  and  _495
REMARK  191  A    between atoms: _495  and  _496
REMARK  192  A    between atoms: _495  and  _498
REMARK  193  A    between atoms: _498  and  _499
REMARK  194  A    between atoms: _502  and  _504
REMARK  195  A    between atoms: _504  and  _505
REMARK  196  A    between atoms: _507  and  _509
REMARK  197  A    between atoms: _509  and  _510
REMARK  198  A    between atoms: _512  and  _514
REMARK  199  A    between atoms: _514  and  _515
REMARK  200  A    between atoms: _514  and  _517
REMARK  201  A    between atoms: _517  and  _518
REMARK  202  A    between atoms: _518  and  _519
REMARK  203  A    between atoms: _522  and  _524
REMARK  204  A    between atoms: _524  and  _525
REMARK  205  A    between atoms: _524  and  _527
REMARK  206  A    between atoms: _527  and  _528
REMARK  207  A    between atoms: _531  and  _533
REMARK  208  A    between atoms: _533  and  _534
REMARK  209  A    between atoms: _533  and  _536
REMARK  210  A    between atoms: _536  and  _537
REMARK  211  A    between atoms: _543  and  _545
REMARK  212  A    between atoms: _545  and  _546
REMARK  213  A    between atoms: _549  and  _551
REMARK  214  A    between atoms: _551  and  _552
REMARK  215  A    between atoms: _551  and  _554
REMARK  216  A    between atoms: _554  and  _555
REMARK  217  A    between atoms: _560  and  _562
REMARK  218  A    between atoms: _562  and  _563
REMARK  219  A    between atoms: _562  and  _565
REMARK  220  A    between atoms: _565  and  _566
REMARK  221  A    between atoms: _571  and  _573
REMARK  222  A    between atoms: _573  and  _574
REMARK  223  A    between atoms: _573  and  _576
REMARK  224  A    between atoms: _576  and  _577
REMARK  225  A    between atoms: _580  and  _582
REMARK  226  A    between atoms: _582  and  _583
REMARK  227  A    between atoms: _582  and  _585
REMARK  228  A    between atoms: _585  and  _586
REMARK  229  A    between atoms: _591  and  _593
REMARK  230  A    between atoms: _593  and  _594
REMARK  231  A    between atoms: _593  and  _596
REMARK  232  A    between atoms: _596  and  _597
REMARK  233  A    between atoms: _597  and  _598
REMARK  234  A    between atoms: _598  and  _599
REMARK  235  A    between atoms: _608  and  _610
REMARK  236  A    between atoms: _610  and  _611
REMARK  237  A    between atoms: _613  and  _615
REMARK  238  A    between atoms: _615  and  _616
REMARK  239  A    between atoms: _615  and  _618
REMARK  240  A    between atoms: _618  and  _619
REMARK  241  A    between atoms: _624  and  _626
REMARK  242  A    between atoms: _626  and  _627
REMARK  243  A    between atoms: _629  and  _631
REMARK  244  A    between atoms: _631  and  _632
REMARK  245  A    between atoms: _635  and  _637
REMARK  246  A    between atoms: _637  and  _638
REMARK  247  A    between atoms: _640  and  _642
REMARK  248  A    between atoms: _642  and  _643
REMARK  249  A    between atoms: _645  and  _647
REMARK  250  A    between atoms: _647  and  _648
REMARK  251  A    between atoms: _651  and  _653
REMARK  252  A    between atoms: _653  and  _654
REMARK  253  A    between atoms: _653  and  _656
REMARK  254  A    between atoms: _656  and  _657
REMARK  255  A    between atoms: _657  and  _658
REMARK  256  A    between atoms: _658  and  _659
REMARK  257  A    between atoms: _668  and  _670
REMARK  258  A    between atoms: _670  and  _671
REMARK  259  A    between atoms: _670  and  _673
REMARK  260  A    between atoms: _673  and  _674
REMARK  261  A    between atoms: _677  and  _679
REMARK  262  A    between atoms: _679  and  _680
REMARK  263  A    between atoms: _679  and  _682
REMARK  264  A    between atoms: _682  and  _683
REMARK                            x       y       z     vdW  Elec       q    Type
REMARK                         _______ _______ _______ _____ _____    ______ ____
ROOT
ATOM      1  CA  VAL A   1       4.461 -28.267 -20.938  0.00  0.00    +0.133 C 
ENDROOT
BRANCH   1   2
ATOM      2  CB  VAL A   1       3.236 -27.379 -20.587  0.00  0.00    +0.023 C 
ATOM      3  CG2 VAL A   1       3.695 -25.967 -20.224  0.00  0.00    +0.002 C 
ATOM      4  CG1 VAL A   1       2.284 -27.317 -21.780  0.00  0.00    +0.002 C 
ENDBRANCH   1   2
BRANCH   1   5
ATOM      5  N   VAL A   1       4.081 -29.666 -21.104  0.00  0.00    -0.239 NA
ATOM      6  H   VAL A   1       3.096 -29.957 -20.939  0.00  0.00    +0.142 HD
ENDBRANCH   1   5
BRANCH   1   7
ATOM      7  C   VAL A   1       5.494 -28.177 -19.815  0.00  0.00    +0.224 C 
ATOM      8  O   VAL A   1       6.403 -27.346 -19.857  0.00  0.00    -0.287 OA
ENDBRANCH   1   7
TORSDOF 3
REMARK  Name = ../refined-set-2016/3old/3old_pocket.pdb
REMARK  264 active torsions:
REMARK  status: ('A' for Active; 'I' for Inactive)
REMARK    1  A    between atoms: _1  and  _3
REMARK    2  A    between atoms: _3  and  _4
REMARK    3  A    between atoms: _3  and  _6
REMARK    4  A    between atoms: _6  and  _7
REMARK    5  A    between atoms: _12  and  _14
REMARK    6  A    between atoms: _14  and  _15
REMARK    7  A    between atoms: _14  and  _17
REMARK    8  A    between atoms: _17  and  _18
REMARK    9  A    between atoms: _24  and  _26
REMARK   10  A    between atoms: _26  and  _27
REMARK   11  A    between atoms: _26  and  _29
REMARK   12  A    between atoms: _29  and  _30
REMARK   13  A    between atoms: _30  and  _31
REMARK   14  A    between atoms: _37  and  _38
REMARK   15  A    between atoms: _43  and  _45
REMARK   16  A    between atoms: _45  and  _46
REMARK   17  A    between atoms: _45  and  _48
REMARK   18  A    between atoms: _48  and  _49
REMARK   19  A    between atoms: _54  and  _56
REMARK   20  A    between atoms: _56  and  _57
REMARK   21  A    between atoms: _56  and  _59
REMARK   22  A    between atoms: _62  and  _64
REMARK   23  A    between atoms: _64  and  _65
REMARK   24  A    between atoms: _64  and  _67
REMARK   25  A    between atoms: _67  and  _68
REMARK   26  A    between atoms: _72  and  _73
REMARK   27  A    between atoms: _79  and  _80
REMARK   28  A    between atoms: _85  and  _87
REMARK   29  A    between atoms: _87  and  _88
REMARK   30  A    between atoms: _87  and  _90
REMARK   31  A    between atoms: _90  and  _91
REMARK   32  A    between atoms: _101  and  _103
REMARK   33  A    between atoms: _103  and  _104
REMARK   34  A    between atoms: _103  and  _106
REMARK   35  A    between atoms: _106  and  _107
REMARK   36  A    between atoms: _117  and  _119
REMARK   37  A    between atoms: _119  and  _120
REMARK   38  A    between atoms: _119  and  _122
REMARK   39  A    between atoms: _122  and  _123
REMARK   40  A    between atoms: _123  and  _124
REMARK   41  A    between atoms: _127  and  _129
REMARK   42  A    between atoms: _129  and  _130
REMARK   43  A    between atoms: _129  and  _132
REMARK   44  A    between atoms: _132  and  _133
REMARK   45  A    between atoms: _133  and  _134
REMARK   46  A    between atoms: _134  and  _135
REMARK   47  A    between atoms: _144  and  _146
REMARK   48  A    between atoms: _146  and  _147
REMARK   49  A    between atoms: _146  and  _149
REMARK   50  A    between atoms: _149  and  _150
REMARK   51  A    between atoms: _155  and  _156
REMARK   52  A    between atoms: _158  and  _160
REMARK   53  A    between atoms: _160  and  _161
REMARK   54  A    between atoms: _160  and  _163
REMARK   55  A    between atoms: _163  and  _164
REMARK   56  A    between atoms: _164  and  _165
REMARK   57  A    between atoms: _171  and  _172
REMARK   58  A    between atoms: _177  and  _179
REMARK   59  A    between atoms: _179  and  _180
REMARK   60  A    between atoms: _179  and  _182
REMARK   61  A    between atoms: _182  and  _183
REMARK   62  A    between atoms: _186  and  _188
REMARK   63  A    between atoms: _188  and  _189
REMARK   64  A    between atoms: _192  and  _194
REMARK   65  A    between atoms: _194  and  _195
REMARK   66  A    between atoms: _194  and  _197
REMARK   67  A    between atoms: _200  and  _202
REMARK   68  A    between atoms: _202  and  _203
REMARK   69  A    between atoms: _202  and  _205
REMARK   70  A    between atoms: _205  and  _206
REMARK   71  A    between atoms: _209  and  _211
REMARK   72  A    between atoms: _211  and  _212
REMARK   73  A    between atoms: _211  and  _214
REMARK   74  A    between atoms: _214  and  _215
REMARK   75  A    between atoms: _220  and  _222
REMARK   76  A    between atoms: _222  and  _223
REMARK   77  A    between atoms: _222  and  _225
REMARK   78  A    between atoms: _225  and  _226
REMARK   79  A    between atoms: _231  and  _233
REMARK   80  A    between atoms: _233  and  _234
REMARK   81  A    between atoms: _233  and  _236
REMARK   82  A    between atoms: _236  and  _237
REMARK   83  A    between atoms: _237  and  _238
REMARK   84  A    between atoms: _240  and  _242
REMARK   85  A    between atoms: _242  and  _243
REMARK   86  A    between atoms: _242  and  _245
REMARK   87  A    between atoms: _247  and  _249
REMARK   88  A    between atoms: _249  and  _250
REMARK   89  A    between atoms: _252  and  _254
REMARK   90  A    between atoms: _254  and  _255
REMARK   91  A    between atoms: _254  and  _257
REMARK   92  A    between atoms: _257  and  _258
REMARK   93  A    between atoms: _263  and  _265
REMARK   94  A    between atoms: _265  and  _266
REMARK   95  A    between atoms: _269  and  _271
REMARK   96  A    between atoms: _271  and  _272
REMARK   97  A    between atoms: _271  and  _274
REMARK   98  A    between atoms: _277  and  _279
REMARK   99  A    between atoms: _279  and  _280
REMARK  100  A    between atoms: _279  and  _282
REMARK  101  A    between atoms: _282  and  _283
REMARK  102  A    between atoms: _286  and  _288
REMARK  103  A    between atoms: _288  and  _289
REMARK  104  A    between atoms: _288  and  _291
REMARK  105  A    between atoms: _291  and  _292
REMARK  106  A    between atoms: _295  and  _297
REMARK  107  A    between atoms: _297  and  _298
REMARK  108  A    between atoms: _297  and  _300
REMARK  109  A    between atoms: _300  and  _301
REMARK  110  A    between atoms: _306  and  _307
REMARK  111  A    between atoms: _309  and  _311
REMARK  112  A    between atoms: _311  and  _312
REMARK  113  A    between atoms: _311  and  _314
REMARK  114  A    between atoms: _317  and  _319
REMARK  115  A    between atoms: _319  and  _320
REMARK  116  A    between atoms: _319  and  _322
REMARK  117  A    between atoms: _322  and  _323
REMARK  118  A    between atoms: _323  and  _324
REMARK  119  A    between atoms: _324  and  _325
REMARK  120  A    between atoms: _334  and  _336
REMARK  121  A    between atoms: _336  and  _337
REMARK  122  A    between atoms: _336  and  _339
REMARK  123  A    between atoms: _339  and  _340
REMARK  124  A    between atoms: _343  and  _345
REMARK  125  A    between atoms: _345  and  _346
REMARK  126  A    between atoms: _345  and  _348
REMARK  127  A    between atoms: _348  and  _349
REMARK  128  A    between atoms: _352  and  _354
REMARK  129  A    between atoms: _354  and  _355
REMARK  130  A    between atoms: _357  and  _359
REMARK  131  A    between atoms: _359  and  _360
REMARK  132  A    between atoms: _359  and  _362
REMARK  133  A    between atoms: _362  and  _363
REMARK  134  A    between atoms: _366  and  _368
REMARK  135  A    between atoms: _368  and  _369
REMARK  136  A    between atoms: _368  and  _371
REMARK  137  A    between atoms: _371  and  _372
REMARK  138  A    between atoms: _375  and  _377
REMARK  139  A    between atoms: _377  and  _378
REMARK  140  A    between atoms: _377  and  _380
REMARK  141  A    between atoms: _380  and  _381
REMARK  142  A    between atoms: _381  and  _382
REMARK  143  A    between atoms: _382  and  _383
REMARK  144  A    between atoms: _392  and  _394
REMARK  145  A    between atoms: _394  and  _395
REMARK  146  A    between atoms: _394  and  _397
REMARK  147  A    between atoms: _397  and  _398
REMARK  148  A    between atoms: _401  and  _403
REMARK  149  A    between atoms: _403  and  _404
REMARK  150  A    between atoms: _403  and  _406
REMARK  151  A    between atoms: _406  and  _407
REMARK  152  A    between atoms: _410  and  _412
REMARK  153  A    between atoms: _412  and  _413
REMARK  154  A    between atoms: _416  and  _418
REMARK  155  A    between atoms: _418  and  _419
REMARK  156  A    between atoms: _418  and  _421
REMARK  157  A    between atoms: _421  and  _422
REMARK  158  A    between atoms: _424  and  _426
REMARK  159  A    between atoms: _426  and  _427
REMARK  160  A    between atoms: _426  and  _429
REMARK  161  A    between atoms: _429  and  _430
REMARK  162  A    between atoms: _430  and  _431
REMARK  163  A    between atoms: _431  and  _432
REMARK  164  A    between atoms: _432  and  _433
REMARK  165  A    between atoms: _437  and  _439
REMARK  166  A    between atoms: _439  and  _440
REMARK  167  A    between atoms: _439  and  _442
REMARK  168  A    between atoms: _442  and  _443
REMARK  169  A    between atoms: _448  and  _450
REMARK  170  A    between atoms: _450  and  _451
REMARK  171  A    between atoms: _450  and  _453
REMARK  172  A    between atoms: _453  and  _454
REMARK  173  A    between atoms: _454  and  _455
REMARK  174  A    between atoms: _457  and  _459
REMARK  175  A    between atoms: _459  and  _460
REMARK  176  A    between atoms: _459  and  _462
REMARK  177  A    between atoms: _462  and  _463
REMARK  178  A    between atoms: _463  and  _464
REMARK  179  A    between atoms: _467  and  _469
REMARK  180  A    between atoms: _469  and  _470
REMARK  181  A    between atoms: _469  and  _472
REMARK  182  A    between atoms: _475  and  _477
REMARK  183  A    between atoms: _477  and  _478
REMARK  184  A    between atoms: _477  and  _480
REMARK  185  A    between atoms: _480  and  _481
REMARK  186  A    between atoms: _484  and  _486
REMARK  187  A    between atoms: _486  and  _487
REMARK  188  A    between atoms: _486  and  _489
REMARK  189  A    between atoms: _489  and  _490
REMARK  190  A    between atoms: _493  and  _495
REMARK  191  A    between atoms: _495  and  _496
REMARK  192  A    between atoms: _495  and  _498
REMARK  193  A    between atoms: _498  and  _499
REMARK  194  A    between atoms: _502  and  _504
REMARK  195  A    between atoms: _504  and  _505
REMARK  196  A    between atoms: _507  and  _509
REMARK  197  A    between atoms: _509  and  _510
REMARK  198  A    between atoms: _512  and  _514
REMARK  199  A    between atoms: _514  and  _515
REMARK  200  A    between atoms: _514  and  _517
REMARK  201  A    between atoms: _517  and  _518
REMARK  202  A    between atoms: _518  and  _519
REMARK  203  A    between atoms: _522  and  _524
REMARK  204  A    between atoms: _524  and  _525
REMARK  205  A    between atoms: _524  and  _527
REMARK  206  A    between atoms: _527  and  _528
REMARK  207  A    between atoms: _531  and  _533
REMARK  208  A    between atoms: _533  and  _534
REMARK  209  A    between atoms: _533  and  _536
REMARK  210  A    between atoms: _536  and  _537
REMARK  211  A    between atoms: _543  and  _545
REMARK  212  A    between atoms: _545  and  _546
REMARK  213  A    between atoms: _549  and  _551
REMARK  214  A    between atoms: _551  and  _552
REMARK  215  A    between atoms: _551  and  _554
REMARK  216  A    between atoms: _554  and  _555
REMARK  217  A    between atoms: _560  and  _562
REMARK  218  A    between atoms: _562  and  _563
REMARK  219  A    between atoms: _562  and  _565
REMARK  220  A    between atoms: _565  and  _566
REMARK  221  A    between atoms: _571  and  _573
REMARK  222  A    between atoms: _573  and  _574
REMARK  223  A    between atoms: _573  and  _576
REMARK  224  A    between atoms: _576  and  _577
REMARK  225  A    between atoms: _580  and  _582
REMARK  226  A    between atoms: _582  and  _583
REMARK  227  A    between atoms: _582  and  _585
REMARK  228  A    between atoms: _585  and  _586
REMARK  229  A    between atoms: _591  and  _593
REMARK  230  A    between atoms: _593  and  _594
REMARK  231  A    between atoms: _593  and  _596
REMARK  232  A    between atoms: _596  and  _597
REMARK  233  A    between atoms: _597  and  _598
REMARK  234  A    between atoms: _598  and  _599
REMARK  235  A    between atoms: _608  and  _610
REMARK  236  A    between atoms: _610  and  _611
REMARK  237  A    between atoms: _613  and  _615
REMARK  238  A    between atoms: _615  and  _616
REMARK  239  A    between atoms: _615  and  _618
REMARK  240  A    between atoms: _618  and  _619
REMARK  241  A    between atoms: _624  and  _626
REMARK  242  A    between atoms: _626  and  _627
REMARK  243  A    between atoms: _629  and  _631
REMARK  244  A    between atoms: _631  and  _632
REMARK  245  A    between atoms: _635  and  _637
REMARK  246  A    between atoms: _637  and  _638
REMARK  247  A    between atoms: _640  and  _642
REMARK  248  A    between atoms: _642  and  _643
REMARK  249  A    between atoms: _645  and  _647
REMARK  250  A    between atoms: _647  and  _648
REMARK  251  A    between atoms: _651  and  _653
REMARK  252  A    between atoms: _653  and  _654
REMARK  253  A    between atoms: _653  and  _656
REMARK  254  A    between atoms: _656  and  _657
REMARK  255  A    between atoms: _657  and  _658
REMARK  256  A    between atoms: _658  and  _659
REMARK  257  A    between atoms: _668  and  _670
REMARK  258  A    between atoms: _670  and  _671
REMARK  259  A    between atoms: _670  and  _673
REMARK  260  A    between atoms: _673  and  _674
REMARK  261  A    between atoms: _677  and  _679
REMARK  262  A    between atoms: _679  and  _680
REMARK  263  A    between atoms: _679  and  _682
REMARK  264  A    between atoms: _682  and  _683
REMARK                            x       y       z     vdW  Elec       q    Type
REMARK                         _______ _______ _______ _____ _____    ______ ____
ROOT
ATOM      1  CA  THR A   3      11.758 -24.462 -27.748  0.00  0.00    +0.176 C 
ENDROOT
BRANCH   1   2
ATOM      2  C   THR A   3      13.185 -25.013 -27.717  0.00  0.00    +0.243 C 
ATOM      3  N   GLY A   4      13.305 -26.295 -27.379  0.00  0.00    -0.295 N 
ATOM      4  H   GLY A   4      12.454 -26.841 -27.136  0.00  0.00    +0.150 HD
ATOM      5  O   THR A   3      14.151 -24.299 -27.985  0.00  0.00    -0.273 OA
BRANCH   3   6
ATOM      6  CA  GLY A   4      14.605 -26.946 -27.344  0.00  0.00    +0.176 C 
BRANCH   6   7
ATOM      7  C   GLY A   4      15.504 -26.745 -26.135  0.00  0.00    +0.243 C 
ATOM      8  N   LEU A   5      15.096 -25.913 -25.180  0.00  0.00    -0.297 N 
ATOM      9  H   LEU A   5      14.181 -25.430 -25.281  0.00  0.00    +0.150 HD
ATOM     10  O   GLY A   4      16.571 -27.347 -26.071  0.00  0.00    -0.273 OA
BRANCH   8  11
ATOM     11  CA  LEU A   5      15.913 -25.664 -23.987  0.00  0.00    +0.149 C 
BRANCH  11  12
ATOM     12  C   LEU A   5      15.985 -26.893 -23.078  0.00  0.00    +0.241 C 
ATOM     13  O   LEU A   5      14.957 -27.391 -22.631  0.00  0.00    -0.273 OA
ATOM     14  N   LEU A   6      17.197 -27.371 -22.798  0.00  0.00    -0.298 N 
ATOM     15  H   LEU A   6      18.034 -26.900 -23.197  0.00  0.00    +0.150 HD
BRANCH  14  16
ATOM     16  CA  LEU A   6      17.376 -28.545 -21.941  0.00  0.00    +0.137 C 
BRANCH  16  17
ATOM     17  C   LEU A   6      16.626 -28.339 -20.627  0.00  0.00    +0.227 C 
ATOM     18  O   LEU A   6      16.936 -27.446 -19.839  0.00  0.00    -0.286 OA
ENDBRANCH  16  17
BRANCH  16  19
ATOM     19  CB  LEU A   6      18.866 -28.812 -21.697  0.00  0.00    +0.028 C 
BRANCH  19  20
ATOM     20  CG  LEU A   6      19.629 -29.227 -22.966  0.00  0.00    +0.002 C 
ATOM     21  CD2 LEU A   6      21.132 -29.311 -22.692  0.00  0.00    +0.000 C 
ATOM     22  CD1 LEU A   6      19.095 -30.573 -23.451  0.00  0.00    +0.000 C 
ENDBRANCH  19  20
ENDBRANCH  16  19
ENDBRANCH  14  16
ENDBRANCH  11  12
BRANCH  11  23
ATOM     23  CB  LEU A   5      15.344 -24.468 -23.209  0.00  0.00    +0.029 C 
BRANCH  23  24
ATOM     24  CG  LEU A   5      15.357 -23.127 -23.960  0.00  0.00    +0.002 C 
ATOM     25  CD2 LEU A   5      14.419 -22.123 -23.297  0.00  0.00    +0.000 C 
ATOM     26  CD1 LEU A   5      16.783 -22.583 -23.997  0.00  0.00    +0.000 C 
ENDBRANCH  23  24
ENDBRANCH  11  23
ENDBRANCH   8  11
ENDBRANCH   6   7
ENDBRANCH   3   6
ENDBRANCH   1   2
BRANCH   1  29
ATOM     27  C   LEU A   2      11.520 -24.728 -25.322  0.00  0.00    +0.241 C 
ATOM     28  O   LEU A   2      12.661 -24.342 -25.099  0.00  0.00    -0.273 OA
ATOM     29  N   THR A   3      11.002 -24.801 -26.546  0.00  0.00    -0.295 N 
ATOM     30  H   THR A   3      10.016 -25.113 -26.651  0.00  0.00    +0.150 HD
BRANCH  27  31
ATOM     31  CA  LEU A   2      10.614 -25.163 -24.175  0.00  0.00    +0.149 C 
BRANCH  31  33
ATOM     32  C   ARG A   1      11.154 -27.541 -24.342  0.00  0.00    +0.238 C 
ATOM     33  N   LEU A   2      11.204 -26.397 -23.661  0.00  0.00    -0.297 N 
ATOM     34  H   LEU A   2      11.677 -26.382 -22.735  0.00  0.00    +0.150 HD
ATOM     35  O   ARG A   1      10.581 -27.660 -25.424  0.00  0.00    -0.274 OA
BRANCH  32  36
ATOM     36  CA  ARG A   1      11.862 -28.728 -23.708  0.00  0.00    +0.145 C 
BRANCH  36  37
ATOM     37  N   ARG A   1      11.049 -29.903 -23.414  0.00  0.00    -0.238 NA
ATOM     38  H   ARG A   1      11.108 -30.726 -24.047  0.00  0.00    +0.142 HD
ENDBRANCH  36  37
BRANCH  36  39
ATOM     39  CB  ARG A   1      13.045 -29.130 -24.598  0.00  0.00    +0.030 C 
BRANCH  39  40
ATOM     40  CG  ARG A   1      13.947 -30.204 -24.001  0.00  0.00    +0.045 C 
BRANCH  40  41
ATOM     41  CD  ARG A   1      15.123 -30.513 -24.922  0.00  0.00    +0.174 C 
BRANCH  41  42
ATOM     42  NE  ARG A   1      14.682 -30.789 -26.286  0.00  0.00    -0.265 N 
ATOM     43  HE  ARG A   1      14.116 -30.063 -26.770  0.00  0.00    +0.259 HD
ATOM     44  CZ  ARG A   1      14.956 -31.907 -26.951  0.00  0.00    +0.342 C 
ATOM     45  NH2 ARG A   1      15.675 -32.858 -26.377  0.00  0.00    -0.292 N 
ATOM     46 HH21 ARG A   1      16.025 -32.731 -25.406  0.00  0.00    +0.255 HD
ATOM     47 HH22 ARG A   1      15.890 -33.733 -26.897  0.00  0.00    +0.255 HD
ATOM     48  NH1 ARG A   1      14.511 -32.076 -28.190  0.00  0.00    -0.292 N 
ATOM     49 HH11 ARG A   1      13.945 -31.332 -28.645  0.00  0.00    +0.255 HD
ATOM     50 HH12 ARG A   1      14.728 -32.953 -28.706  0.00  0.00    +0.255 HD
ENDBRANCH  41  42
ENDBRANCH  40  41
ENDBRANCH  39  40
ENDBRANCH  36  39
ENDBRANCH  32  36
ENDBRANCH  31  33
BRANCH  31  51
ATOM     51  CB  LEU A   2      10.592 -24.088 -23.081  0.00  0.00    +0.029 C 
BRANCH  51  52
ATOM     52  CG  LEU A   2      10.235 -22.649 -23.476  0.00  0.00    +0.002 C 
ATOM     53  CD2 LEU A   2      10.240 -21.768 -22.231  0.00  0.00    +0.000 C 
ATOM     54  CD1 LEU A   2       8.871 -22.615 -24.160  0.00  0.00    +0.000 C 
ENDBRANCH  51  52
ENDBRANCH  31  51
ENDBRANCH  27  31
ENDBRANCH   1  29
BRANCH   1  55
ATOM     55  CB  THR A   3      11.790 -22.920 -28.015  0.00  0.00    +0.137 C 
ATOM     56  CG2 THR A   3      10.400 -22.421 -28.372  0.00  0.00    +0.034 C 
BRANCH  55  57
ATOM     57  OG1 THR A   3      12.265 -22.220 -26.856  0.00  0.00    -0.382 OA
ATOM     58  HG1 THR A   3      13.180 -22.529 -26.638  0.00  0.00    +0.210 HD
ENDBRANCH  55  57
ENDBRANCH   1  55
TORSDOF 24
REMARK  Name = ../refined-set-2016/3old/3old_pocket.pdb
REMARK  264 active torsions:
REMARK  status: ('A' for Active; 'I' for Inactive)
REMARK    1  A    between atoms: _1  and  _3
REMARK    2  A    between atoms: _3  and  _4
REMARK    3  A    between atoms: _3  and  _6
REMARK    4  A    between atoms: _6  and  _7
REMARK    5  A    between atoms: _12  and  _14
REMARK    6  A    between atoms: _14  and  _15
REMARK    7  A    between atoms: _14  and  _17
REMARK    8  A    between atoms: _17  and  _18
REMARK    9  A    between atoms: _24  and  _26
REMARK   10  A    between atoms: _26  and  _27
REMARK   11  A    between atoms: _26  and  _29
REMARK   12  A    between atoms: _29  and  _30
REMARK   13  A    between atoms: _30  and  _31
REMARK   14  A    between atoms: _37  and  _38
REMARK   15  A    between atoms: _43  and  _45
REMARK   16  A    between atoms: _45  and  _46
REMARK   17  A    between atoms: _45  and  _48
REMARK   18  A    between atoms: _48  and  _49
REMARK   19  A    between atoms: _54  and  _56
REMARK   20  A    between atoms: _56  and  _57
REMARK   21  A    between atoms: _56  and  _59
REMARK   22  A    between atoms: _62  and  _64
REMARK   23  A    between atoms: _64  and  _65
REMARK   24  A    between atoms: _64  and  _67
REMARK   25  A    between atoms: _67  and  _68
REMARK   26  A    between atoms: _72  and  _73
REMARK   27  A    between atoms: _79  and  _80
REMARK   28  A    between atoms: _85  and  _87
REMARK   29  A    between atoms: _87  and  _88
REMARK   30  A    between atoms: _87  and  _90
REMARK   31  A    between atoms: _90  and  _91
REMARK   32  A    between atoms: _101  and  _103
REMARK   33  A    between atoms: _103  and  _104
REMARK   34  A    between atoms: _103  and  _106
REMARK   35  A    between atoms: _106  and  _107
REMARK   36  A    between atoms: _117  and  _119
REMARK   37  A    between atoms: _119  and  _120
REMARK   38  A    between atoms: _119  and  _122
REMARK   39  A    between atoms: _122  and  _123
REMARK   40  A    between atoms: _123  and  _124
REMARK   41  A    between atoms: _127  and  _129
REMARK   42  A    between atoms: _129  and  _130
REMARK   43  A    between atoms: _129  and  _132
REMARK   44  A    between atoms: _132  and  _133
REMARK   45  A    between atoms: _133  and  _134
REMARK   46  A    between atoms: _134  and  _135
REMARK   47  A    between atoms: _144  and  _146
REMARK   48  A    between atoms: _146  and  _147
REMARK   49  A    between atoms: _146  and  _149
REMARK   50  A    between atoms: _149  and  _150
REMARK   51  A    between atoms: _155  and  _156
REMARK   52  A    between atoms: _158  and  _160
REMARK   53  A    between atoms: _160  and  _161
REMARK   54  A    between atoms: _160  and  _163
REMARK   55  A    between atoms: _163  and  _164
REMARK   56  A    between atoms: _164  and  _165
REMARK   57  A    between atoms: _171  and  _172
REMARK   58  A    between atoms: _177  and  _179
REMARK   59  A    between atoms: _179  and  _180
REMARK   60  A    between atoms: _179  and  _182
REMARK   61  A    between atoms: _182  and  _183
REMARK   62  A    between atoms: _186  and  _188
REMARK   63  A    between atoms: _188  and  _189
REMARK   64  A    between atoms: _192  and  _194
REMARK   65  A    between atoms: _194  and  _195
REMARK   66  A    between atoms: _194  and  _197
REMARK   67  A    between atoms: _200  and  _202
REMARK   68  A    between atoms: _202  and  _203
REMARK   69  A    between atoms: _202  and  _205
REMARK   70  A    between atoms: _205  and  _206
REMARK   71  A    between atoms: _209  and  _211
REMARK   72  A    between atoms: _211  and  _212
REMARK   73  A    between atoms: _211  and  _214
REMARK   74  A    between atoms: _214  and  _215
REMARK   75  A    between atoms: _220  and  _222
REMARK   76  A    between atoms: _222  and  _223
REMARK   77  A    between atoms: _222  and  _225
REMARK   78  A    between atoms: _225  and  _226
REMARK   79  A    between atoms: _231  and  _233
REMARK   80  A    between atoms: _233  and  _234
REMARK   81  A    between atoms: _233  and  _236
REMARK   82  A    between atoms: _236  and  _237
REMARK   83  A    between atoms: _237  and  _238
REMARK   84  A    between atoms: _240  and  _242
REMARK   85  A    between atoms: _242  and  _243
REMARK   86  A    between atoms: _242  and  _245
REMARK   87  A    between atoms: _247  and  _249
REMARK   88  A    between atoms: _249  and  _250
REMARK   89  A    between atoms: _252  and  _254
REMARK   90  A    between atoms: _254  and  _255
REMARK   91  A    between atoms: _254  and  _257
REMARK   92  A    between atoms: _257  and  _258
REMARK   93  A    between atoms: _263  and  _265
REMARK   94  A    between atoms: _265  and  _266
REMARK   95  A    between atoms: _269  and  _271
REMARK   96  A    between atoms: _271  and  _272
REMARK   97  A    between atoms: _271  and  _274
REMARK   98  A    between atoms: _277  and  _279
REMARK   99  A    between atoms: _279  and  _280
REMARK  100  A    between atoms: _279  and  _282
REMARK  101  A    between atoms: _282  and  _283
REMARK  102  A    between atoms: _286  and  _288
REMARK  103  A    between atoms: _288  and  _289
REMARK  104  A    between atoms: _288  and  _291
REMARK  105  A    between atoms: _291  and  _292
REMARK  106  A    between atoms: _295  and  _297
REMARK  107  A    between atoms: _297  and  _298
REMARK  108  A    between atoms: _297  and  _300
REMARK  109  A    between atoms: _300  and  _301
REMARK  110  A    between atoms: _306  and  _307
REMARK  111  A    between atoms: _309  and  _311
REMARK  112  A    between atoms: _311  and  _312
REMARK  113  A    between atoms: _311  and  _314
REMARK  114  A    between atoms: _317  and  _319
REMARK  115  A    between atoms: _319  and  _320
REMARK  116  A    between atoms: _319  and  _322
REMARK  117  A    between atoms: _322  and  _323
REMARK  118  A    between atoms: _323  and  _324
REMARK  119  A    between atoms: _324  and  _325
REMARK  120  A    between atoms: _334  and  _336
REMARK  121  A    between atoms: _336  and  _337
REMARK  122  A    between atoms: _336  and  _339
REMARK  123  A    between atoms: _339  and  _340
REMARK  124  A    between atoms: _343  and  _345
REMARK  125  A    between atoms: _345  and  _346
REMARK  126  A    between atoms: _345  and  _348
REMARK  127  A    between atoms: _348  and  _349
REMARK  128  A    between atoms: _352  and  _354
REMARK  129  A    between atoms: _354  and  _355
REMARK  130  A    between atoms: _357  and  _359
REMARK  131  A    between atoms: _359  and  _360
REMARK  132  A    between atoms: _359  and  _362
REMARK  133  A    between atoms: _362  and  _363
REMARK  134  A    between atoms: _366  and  _368
REMARK  135  A    between atoms: _368  and  _369
REMARK  136  A    between atoms: _368  and  _371
REMARK  137  A    between atoms: _371  and  _372
REMARK  138  A    between atoms: _375  and  _377
REMARK  139  A    between atoms: _377  and  _378
REMARK  140  A    between atoms: _377  and  _380
REMARK  141  A    between atoms: _380  and  _381
REMARK  142  A    between atoms: _381  and  _382
REMARK  143  A    between atoms: _382  and  _383
REMARK  144  A    between atoms: _392  and  _394
REMARK  145  A    between atoms: _394  and  _395
REMARK  146  A    between atoms: _394  and  _397
REMARK  147  A    between atoms: _397  and  _398
REMARK  148  A    between atoms: _401  and  _403
REMARK  149  A    between atoms: _403  and  _404
REMARK  150  A    between atoms: _403  and  _406
REMARK  151  A    between atoms: _406  and  _407
REMARK  152  A    between atoms: _410  and  _412
REMARK  153  A    between atoms: _412  and  _413
REMARK  154  A    between atoms: _416  and  _418
REMARK  155  A    between atoms: _418  and  _419
REMARK  156  A    between atoms: _418  and  _421
REMARK  157  A    between atoms: _421  and  _422
REMARK  158  A    between atoms: _424  and  _426
REMARK  159  A    between atoms: _426  and  _427
REMARK  160  A    between atoms: _426  and  _429
REMARK  161  A    between atoms: _429  and  _430
REMARK  162  A    between atoms: _430  and  _431
REMARK  163  A    between atoms: _431  and  _432
REMARK  164  A    between atoms: _432  and  _433
REMARK  165  A    between atoms: _437  and  _439
REMARK  166  A    between atoms: _439  and  _440
REMARK  167  A    between atoms: _439  and  _442
REMARK  168  A    between atoms: _442  and  _443
REMARK  169  A    between atoms: _448  and  _450
REMARK  170  A    between atoms: _450  and  _451
REMARK  171  A    between atoms: _450  and  _453
REMARK  172  A    between atoms: _453  and  _454
REMARK  173  A    between atoms: _454  and  _455
REMARK  174  A    between atoms: _457  and  _459
REMARK  175  A    between atoms: _459  and  _460
REMARK  176  A    between atoms: _459  and  _462
REMARK  177  A    between atoms: _462  and  _463
REMARK  178  A    between atoms: _463  and  _464
REMARK  179  A    between atoms: _467  and  _469
REMARK  180  A    between atoms: _469  and  _470
REMARK  181  A    between atoms: _469  and  _472
REMARK  182  A    between atoms: _475  and  _477
REMARK  183  A    between atoms: _477  and  _478
REMARK  184  A    between atoms: _477  and  _480
REMARK  185  A    between atoms: _480  and  _481
REMARK  186  A    between atoms: _484  and  _486
REMARK  187  A    between atoms: _486  and  _487
REMARK  188  A    between atoms: _486  and  _489
REMARK  189  A    between atoms: _489  and  _490
REMARK  190  A    between atoms: _493  and  _495
REMARK  191  A    between atoms: _495  and  _496
REMARK  192  A    between atoms: _495  and  _498
REMARK  193  A    between atoms: _498  and  _499
REMARK  194  A    between atoms: _502  and  _504
REMARK  195  A    between atoms: _504  and  _505
REMARK  196  A    between atoms: _507  and  _509
REMARK  197  A    between atoms: _509  and  _510
REMARK  198  A    between atoms: _512  and  _514
REMARK  199  A    between atoms: _514  and  _515
REMARK  200  A    between atoms: _514  and  _517
REMARK  201  A    between atoms: _517  and  _518
REMARK  202  A    between atoms: _518  and  _519
REMARK  203  A    between atoms: _522  and  _524
REMARK  204  A    between atoms: _524  and  _525
REMARK  205  A    between atoms: _524  and  _527
REMARK  206  A    between atoms: _527  and  _528
REMARK  207  A    between atoms: _531  and  _533
REMARK  208  A    between atoms: _533  and  _534
REMARK  209  A    between atoms: _533  and  _536
REMARK  210  A    between atoms: _536  and  _537
REMARK  211  A    between atoms: _543  and  _545
REMARK  212  A    between atoms: _545  and  _546
REMARK  213  A    between atoms: _549  and  _551
REMARK  214  A    between atoms: _551  and  _552
REMARK  215  A    between atoms: _551  and  _554
REMARK  216  A    between atoms: _554  and  _555
REMARK  217  A    between atoms: _560  and  _562
REMARK  218  A    between atoms: _562  and  _563
REMARK  219  A    between atoms: _562  and  _565
REMARK  220  A    between atoms: _565  and  _566
REMARK  221  A    between atoms: _571  and  _573
REMARK  222  A    between atoms: _573  and  _574
REMARK  223  A    between atoms: _573  and  _576
REMARK  224  A    between atoms: _576  and  _577
REMARK  225  A    between atoms: _580  and  _582
REMARK  226  A    between atoms: _582  and  _583
REMARK  227  A    between atoms: _582  and  _585
REMARK  228  A    between atoms: _585  and  _586
REMARK  229  A    between atoms: _591  and  _593
REMARK  230  A    between atoms: _593  and  _594
REMARK  231  A    between atoms: _593  and  _596
REMARK  232  A    between atoms: _596  and  _597
REMARK  233  A    between atoms: _597  and  _598
REMARK  234  A    between atoms: _598  and  _599
REMARK  235  A    between atoms: _608  and  _610
REMARK  236  A    between atoms: _610  and  _611
REMARK  237  A    between atoms: _613  and  _615
REMARK  238  A    between atoms: _615  and  _616
REMARK  239  A    between atoms: _615  and  _618
REMARK  240  A    between atoms: _618  and  _619
REMARK  241  A    between atoms: _624  and  _626
REMARK  242  A    between atoms: _626  and  _627
REMARK  243  A    between atoms: _629  and  _631
REMARK  244  A    between atoms: _631  and  _632
REMARK  245  A    between atoms: _635  and  _637
REMARK  246  A    between atoms: _637  and  _638
REMARK  247  A    between atoms: _640  and  _642
REMARK  248  A    between atoms: _642  and  _643
REMARK  249  A    between atoms: _645  and  _647
REMARK  250  A    between atoms: _647  and  _648
REMARK  251  A    between atoms: _651  and  _653
REMARK  252  A    between atoms: _653  and  _654
REMARK  253  A    between atoms: _653  and  _656
REMARK  254  A    between atoms: _656  and  _657
REMARK  255  A    between atoms: _657  and  _658
REMARK  256  A    between atoms: _658  and  _659
REMARK  257  A    between atoms: _668  and  _670
REMARK  258  A    between atoms: _670  and  _671
REMARK  259  A    between atoms: _670  and  _673
REMARK  260  A    between atoms: _673  and  _674
REMARK  261  A    between atoms: _677  and  _679
REMARK  262  A    between atoms: _679  and  _680
REMARK  263  A    between atoms: _679  and  _682
REMARK  264  A    between atoms: _682  and  _683
REMARK                            x       y       z     vdW  Elec       q    Type
REMARK                         _______ _______ _______ _____ _____    ______ ____
ROOT
ATOM      1  C   ALA A   4       8.501 -20.628 -16.284  0.00  0.00    +0.241 C 
ATOM      2  N   SER A   5       7.757 -19.997 -15.384  0.00  0.00    -0.295 N 
ATOM      3  H   SER A   5       7.619 -18.969 -15.453  0.00  0.00    +0.150 HD
ATOM      4  O   ALA A   4       8.683 -21.846 -16.252  0.00  0.00    -0.273 OA
ENDROOT
BRANCH   1   5
ATOM      5  CA  ALA A   4       9.127 -19.781 -17.388  0.00  0.00    +0.149 C 
ATOM      6  CB  ALA A   4      10.123 -20.629 -18.179  0.00  0.00    +0.031 C 
BRANCH   5   9
ATOM      7  C   ASP A   3      10.647 -18.597 -15.881  0.00  0.00    +0.241 C 
ATOM      8  O   ASP A   3      10.919 -19.617 -15.251  0.00  0.00    -0.273 OA
ATOM      9  N   ALA A   4       9.792 -18.575 -16.901  0.00  0.00    -0.297 N 
ATOM     10  H   ALA A   4       9.590 -17.668 -17.367  0.00  0.00    +0.150 HD
BRANCH   7  11
ATOM     11  CA  ASP A   3      11.282 -17.259 -15.512  0.00  0.00    +0.160 C 
BRANCH  11  14
ATOM     12  C   LEU A   2      10.416 -17.114 -13.241  0.00  0.00    +0.241 C 
ATOM     13  O   LEU A   2       9.245 -17.249 -13.606  0.00  0.00    -0.273 OA
ATOM     14  N   ASP A   3      11.445 -17.108 -14.075  0.00  0.00    -0.297 N 
ATOM     15  H   ASP A   3      12.403 -16.991 -13.688  0.00  0.00    +0.150 HD
BRANCH  12  16
ATOM     16  CA  LEU A   2      10.774 -16.917 -11.780  0.00  0.00    +0.149 C 
BRANCH  16  18
ATOM     17  C   ARG A   1      11.430 -14.613 -11.535  0.00  0.00    +0.238 C 
ATOM     18  N   LEU A   2      10.480 -15.535 -11.436  0.00  0.00    -0.297 N 
ATOM     19  H   LEU A   2       9.528 -15.270 -11.113  0.00  0.00    +0.150 HD
ATOM     20  O   ARG A   1      12.586 -14.885 -11.872  0.00  0.00    -0.274 OA
BRANCH  17  21
ATOM     21  CA  ARG A   1      11.070 -13.183 -11.172  0.00  0.00    +0.145 C 
BRANCH  21  22
ATOM     22  N   ARG A   1      12.044 -12.993 -10.114  0.00  0.00    -0.238 NA
ATOM     23  H   ARG A   1      13.027 -12.764 -10.365  0.00  0.00    +0.142 HD
ENDBRANCH  21  22
BRANCH  21  24
ATOM     24  CB  ARG A   1      11.346 -12.302 -12.392  0.00  0.00    +0.030 C 
BRANCH  24  25
ATOM     25  CG  ARG A   1      10.559 -12.766 -13.633  0.00  0.00    +0.045 C 
BRANCH  25  26
ATOM     26  CD  ARG A   1      10.984 -12.047 -14.904  0.00  0.00    +0.174 C 
BRANCH  26  27
ATOM     27  NE  ARG A   1      10.181 -12.447 -16.061  0.00  0.00    -0.265 N 
ATOM     28  HE  ARG A   1       9.223 -12.050 -16.139  0.00  0.00    +0.259 HD
ATOM     29  CZ  ARG A   1      10.580 -13.277 -17.019  0.00  0.00    +0.342 C 
ATOM     30  NH2 ARG A   1      11.791 -13.818 -16.982  0.00  0.00    -0.292 N 
ATOM     31 HH21 ARG A   1      12.437 -13.594 -16.199  0.00  0.00    +0.255 HD
ATOM     32 HH22 ARG A   1      12.094 -14.466 -17.736  0.00  0.00    +0.255 HD
ATOM     33  NH1 ARG A   1       9.762 -13.570 -18.021  0.00  0.00    -0.292 N 
ATOM     34 HH11 ARG A   1       8.811 -13.150 -18.056  0.00  0.00    +0.255 HD
ATOM     35 HH12 ARG A   1      10.072 -14.219 -18.772  0.00  0.00    +0.255 HD
ENDBRANCH  26  27
ENDBRANCH  25  26
ENDBRANCH  24  25
ENDBRANCH  21  24
ENDBRANCH  17  21
ENDBRANCH  16  18
BRANCH  16  36
ATOM     36  CB  LEU A   2       9.989 -17.888 -10.889  0.00  0.00    +0.029 C 
BRANCH  36  37
ATOM     37  CG  LEU A   2      10.284 -17.793  -9.388  0.00  0.00    +0.002 C 
ATOM     38  CD2 LEU A   2       9.628 -18.960  -8.668  0.00  0.00    +0.000 C 
ATOM     39  CD1 LEU A   2      11.793 -17.803  -9.148  0.00  0.00    +0.000 C 
ENDBRANCH  36  37
ENDBRANCH  16  36
ENDBRANCH  12  16
ENDBRANCH  11  14
BRANCH  11  40
ATOM     40  CB  ASP A   3      12.647 -17.122 -16.191  0.00  0.00    +0.143 C 
BRANCH  40  41
ATOM     41  CG  ASP A   3      12.582 -17.344 -17.687  0.00  0.00    +0.367 C 
ATOM     42  OD2 ASP A   3      13.174 -18.333 -18.168  0.00  0.00    -0.246 OA
ATOM     43  OD1 ASP A   3      11.937 -16.536 -18.383  0.00  0.00    -0.246 OA
ENDBRANCH  40  41
ENDBRANCH  11  40
ENDBRANCH   7  11
ENDBRANCH   5   9
ENDBRANCH   1   5
BRANCH   2  44
ATOM     44  CA  SER A   5       7.134 -20.743 -14.300  0.00  0.00    +0.178 C 
BRANCH  44  45
ATOM     45  C   SER A   5       6.067 -21.714 -14.787  0.00  0.00    +0.243 C 
ATOM     46  O   SER A   5       5.862 -22.763 -14.178  0.00  0.00    -0.273 OA
ATOM     47  N   LYS A   6       5.392 -21.378 -15.882  0.00  0.00    -0.297 N 
ATOM     48  H   LYS A   6       5.603 -20.480 -16.362  0.00  0.00    +0.150 HD
BRANCH  47  49
ATOM     49  CA  LYS A   6       4.355 -22.260 -16.418  0.00  0.00    +0.149 C 
BRANCH  49  50
ATOM     50  C   LYS A   6       4.973 -23.608 -16.750  0.00  0.00    +0.241 C 
ATOM     51  O   LYS A   6       4.299 -24.642 -16.758  0.00  0.00    -0.273 OA
ATOM     52  N   HIS A   7       6.270 -23.585 -17.023  0.00  0.00    -0.297 N 
ATOM     53  H   HIS A   7       6.785 -22.683 -16.968  0.00  0.00    +0.150 HD
BRANCH  52  54
ATOM     54  CA  HIS A   7       6.988 -24.788 -17.397  0.00  0.00    +0.155 C 
BRANCH  54  55
ATOM     55  C   HIS A   7       7.522 -25.579 -16.221  0.00  0.00    +0.241 C 
ATOM     56  N   MET A   8       7.199 -25.138 -15.013  0.00  0.00    -0.298 N 
ATOM     57  H   MET A   8       6.630 -24.273 -14.915  0.00  0.00    +0.150 HD
ATOM     58  O   HIS A   7       8.192 -26.586 -16.397  0.00  0.00    -0.273 OA
BRANCH  56  59
ATOM     59  CA  MET A   8       7.633 -25.854 -13.825  0.00  0.00    +0.138 C 
BRANCH  59  60
ATOM     60  C   MET A   8       6.388 -26.237 -13.034  0.00  0.00    +0.227 C 
ATOM     61  O   MET A   8       5.415 -25.477 -12.984  0.00  0.00    -0.286 OA
ENDBRANCH  59  60
BRANCH  59  62
ATOM     62  CB  MET A   8       8.558 -24.974 -12.975  0.00  0.00    +0.039 C 
BRANCH  62  63
ATOM     63  CG  MET A   8       9.824 -24.525 -13.713  0.00  0.00    +0.060 C 
BRANCH  63  64
ATOM     64  SD  MET A   8      10.987 -23.605 -12.684  0.00  0.00    -0.139 S 
ATOM     65  CE  MET A   8      10.249 -21.981 -12.704  0.00  0.00    +0.069 C 
ENDBRANCH  63  64
ENDBRANCH  62  63
ENDBRANCH  59  62
ENDBRANCH  56  59
ENDBRANCH  54  55
BRANCH  54  66
ATOM     66  CB  HIS A   7       8.090 -24.406 -18.379  0.00  0.00    +0.076 C 
BRANCH  66  67
ATOM     67  CG  HIS A   7       7.557 -23.736 -19.607  0.00  0.00    +0.082 A 
ATOM     68  CD2 HIS A   7       7.481 -22.427 -19.947  0.00  0.00    +0.115 A 
ATOM     69  NE2 HIS A   7       6.767 -22.353 -21.119  0.00  0.00    -0.221 NA
ATOM     70  CE1 HIS A   7       6.424 -23.574 -21.491  0.00  0.00    +0.199 A 
ATOM     71  ND1 HIS A   7       6.890 -24.428 -20.596  0.00  0.00    -0.227 NA
ENDBRANCH  66  67
ENDBRANCH  54  66
ENDBRANCH  52  54
ENDBRANCH  49  50
BRANCH  49  72
ATOM     72  CB  LYS A   6       3.741 -21.681 -17.700  0.00  0.00    +0.029 C 
BRANCH  72  73
ATOM     73  CG  LYS A   6       2.768 -22.653 -18.375  0.00  0.00    +0.000 C 
BRANCH  73  74
ATOM     74  CD  LYS A   6       2.303 -22.196 -19.754  0.00  0.00    -0.024 C 
BRANCH  74  75
ATOM     75  CE  LYS A   6       1.300 -21.061 -19.686  0.00  0.00    -0.086 C 
BRANCH  75  76
ATOM     76  NZ  LYS A   6       0.829 -20.690 -21.059  0.00  0.00    +0.380 N 
ATOM     77  HZ1 LYS A   6       0.143 -19.911 -20.990  0.00  0.00    -0.089 HD
ATOM     78  HZ2 LYS A   6       0.376 -21.514 -21.503  0.00  0.00    -0.089 HD
ATOM     79  HZ3 LYS A   6       1.642 -20.388 -21.633  0.00  0.00    -0.089 HD
ENDBRANCH  75  76
ENDBRANCH  74  75
ENDBRANCH  73  74
ENDBRANCH  72  73
ENDBRANCH  49  72
ENDBRANCH  47  49
ENDBRANCH  44  45
BRANCH  44  80
ATOM     80  CB  SER A   5       6.544 -19.785 -13.265  0.00  0.00    +0.166 C 
BRANCH  80  81
ATOM     81  OG  SER A   5       7.577 -19.233 -12.468  0.00  0.00    -0.380 OA
ATOM     82  H   SER A   5       8.210 -18.738 -13.046  0.00  0.00    +0.211 HD
ENDBRANCH  80  81
ENDBRANCH  44  80
ENDBRANCH   2  44
TORSDOF 36
REMARK  Name = ../refined-set-2016/3old/3old_pocket.pdb
REMARK  264 active torsions:
REMARK  status: ('A' for Active; 'I' for Inactive)
REMARK    1  A    between atoms: _1  and  _3
REMARK    2  A    between atoms: _3  and  _4
REMARK    3  A    between atoms: _3  and  _6
REMARK    4  A    between atoms: _6  and  _7
REMARK    5  A    between atoms: _12  and  _14
REMARK    6  A    between atoms: _14  and  _15
REMARK    7  A    between atoms: _14  and  _17
REMARK    8  A    between atoms: _17  and  _18
REMARK    9  A    between atoms: _24  and  _26
REMARK   10  A    between atoms: _26  and  _27
REMARK   11  A    between atoms: _26  and  _29
REMARK   12  A    between atoms: _29  and  _30
REMARK   13  A    between atoms: _30  and  _31
REMARK   14  A    between atoms: _37  and  _38
REMARK   15  A    between atoms: _43  and  _45
REMARK   16  A    between atoms: _45  and  _46
REMARK   17  A    between atoms: _45  and  _48
REMARK   18  A    between atoms: _48  and  _49
REMARK   19  A    between atoms: _54  and  _56
REMARK   20  A    between atoms: _56  and  _57
REMARK   21  A    between atoms: _56  and  _59
REMARK   22  A    between atoms: _62  and  _64
REMARK   23  A    between atoms: _64  and  _65
REMARK   24  A    between atoms: _64  and  _67
REMARK   25  A    between atoms: _67  and  _68
REMARK   26  A    between atoms: _72  and  _73
REMARK   27  A    between atoms: _79  and  _80
REMARK   28  A    between atoms: _85  and  _87
REMARK   29  A    between atoms: _87  and  _88
REMARK   30  A    between atoms: _87  and  _90
REMARK   31  A    between atoms: _90  and  _91
REMARK   32  A    between atoms: _101  and  _103
REMARK   33  A    between atoms: _103  and  _104
REMARK   34  A    between atoms: _103  and  _106
REMARK   35  A    between atoms: _106  and  _107
REMARK   36  A    between atoms: _117  and  _119
REMARK   37  A    between atoms: _119  and  _120
REMARK   38  A    between atoms: _119  and  _122
REMARK   39  A    between atoms: _122  and  _123
REMARK   40  A    between atoms: _123  and  _124
REMARK   41  A    between atoms: _127  and  _129
REMARK   42  A    between atoms: _129  and  _130
REMARK   43  A    between atoms: _129  and  _132
REMARK   44  A    between atoms: _132  and  _133
REMARK   45  A    between atoms: _133  and  _134
REMARK   46  A    between atoms: _134  and  _135
REMARK   47  A    between atoms: _144  and  _146
REMARK   48  A    between atoms: _146  and  _147
REMARK   49  A    between atoms: _146  and  _149
REMARK   50  A    between atoms: _149  and  _150
REMARK   51  A    between atoms: _155  and  _156
REMARK   52  A    between atoms: _158  and  _160
REMARK   53  A    between atoms: _160  and  _161
REMARK   54  A    between atoms: _160  and  _163
REMARK   55  A    between atoms: _163  and  _164
REMARK   56  A    between atoms: _164  and  _165
REMARK   57  A    between atoms: _171  and  _172
REMARK   58  A    between atoms: _177  and  _179
REMARK   59  A    between atoms: _179  and  _180
REMARK   60  A    between atoms: _179  and  _182
REMARK   61  A    between atoms: _182  and  _183
REMARK   62  A    between atoms: _186  and  _188
REMARK   63  A    between atoms: _188  and  _189
REMARK   64  A    between atoms: _192  and  _194
REMARK   65  A    between atoms: _194  and  _195
REMARK   66  A    between atoms: _194  and  _197
REMARK   67  A    between atoms: _200  and  _202
REMARK   68  A    between atoms: _202  and  _203
REMARK   69  A    between atoms: _202  and  _205
REMARK   70  A    between atoms: _205  and  _206
REMARK   71  A    between atoms: _209  and  _211
REMARK   72  A    between atoms: _211  and  _212
REMARK   73  A    between atoms: _211  and  _214
REMARK   74  A    between atoms: _214  and  _215
REMARK   75  A    between atoms: _220  and  _222
REMARK   76  A    between atoms: _222  and  _223
REMARK   77  A    between atoms: _222  and  _225
REMARK   78  A    between atoms: _225  and  _226
REMARK   79  A    between atoms: _231  and  _233
REMARK   80  A    between atoms: _233  and  _234
REMARK   81  A    between atoms: _233  and  _236
REMARK   82  A    between atoms: _236  and  _237
REMARK   83  A    between atoms: _237  and  _238
REMARK   84  A    between atoms: _240  and  _242
REMARK   85  A    between atoms: _242  and  _243
REMARK   86  A    between atoms: _242  and  _245
REMARK   87  A    between atoms: _247  and  _249
REMARK   88  A    between atoms: _249  and  _250
REMARK   89  A    between atoms: _252  and  _254
REMARK   90  A    between atoms: _254  and  _255
REMARK   91  A    between atoms: _254  and  _257
REMARK   92  A    between atoms: _257  and  _258
REMARK   93  A    between atoms: _263  and  _265
REMARK   94  A    between atoms: _265  and  _266
REMARK   95  A    between atoms: _269  and  _271
REMARK   96  A    between atoms: _271  and  _272
REMARK   97  A    between atoms: _271  and  _274
REMARK   98  A    between atoms: _277  and  _279
REMARK   99  A    between atoms: _279  and  _280
REMARK  100  A    between atoms: _279  and  _282
REMARK  101  A    between atoms: _282  and  _283
REMARK  102  A    between atoms: _286  and  _288
REMARK  103  A    between atoms: _288  and  _289
REMARK  104  A    between atoms: _288  and  _291
REMARK  105  A    between atoms: _291  and  _292
REMARK  106  A    between atoms: _295  and  _297
REMARK  107  A    between atoms: _297  and  _298
REMARK  108  A    between atoms: _297  and  _300
REMARK  109  A    between atoms: _300  and  _301
REMARK  110  A    between atoms: _306  and  _307
REMARK  111  A    between atoms: _309  and  _311
REMARK  112  A    between atoms: _311  and  _312
REMARK  113  A    between atoms: _311  and  _314
REMARK  114  A    between atoms: _317  and  _319
REMARK  115  A    between atoms: _319  and  _320
REMARK  116  A    between atoms: _319  and  _322
REMARK  117  A    between atoms: _322  and  _323
REMARK  118  A    between atoms: _323  and  _324
REMARK  119  A    between atoms: _324  and  _325
REMARK  120  A    between atoms: _334  and  _336
REMARK  121  A    between atoms: _336  and  _337
REMARK  122  A    between atoms: _336  and  _339
REMARK  123  A    between atoms: _339  and  _340
REMARK  124  A    between atoms: _343  and  _345
REMARK  125  A    between atoms: _345  and  _346
REMARK  126  A    between atoms: _345  and  _348
REMARK  127  A    between atoms: _348  and  _349
REMARK  128  A    between atoms: _352  and  _354
REMARK  129  A    between atoms: _354  and  _355
REMARK  130  A    between atoms: _357  and  _359
REMARK  131  A    between atoms: _359  and  _360
REMARK  132  A    between atoms: _359  and  _362
REMARK  133  A    between atoms: _362  and  _363
REMARK  134  A    between atoms: _366  and  _368
REMARK  135  A    between atoms: _368  and  _369
REMARK  136  A    between atoms: _368  and  _371
REMARK  137  A    between atoms: _371  and  _372
REMARK  138  A    between atoms: _375  and  _377
REMARK  139  A    between atoms: _377  and  _378
REMARK  140  A    between atoms: _377  and  _380
REMARK  141  A    between atoms: _380  and  _381
REMARK  142  A    between atoms: _381  and  _382
REMARK  143  A    between atoms: _382  and  _383
REMARK  144  A    between atoms: _392  and  _394
REMARK  145  A    between atoms: _394  and  _395
REMARK  146  A    between atoms: _394  and  _397
REMARK  147  A    between atoms: _397  and  _398
REMARK  148  A    between atoms: _401  and  _403
REMARK  149  A    between atoms: _403  and  _404
REMARK  150  A    between atoms: _403  and  _406
REMARK  151  A    between atoms: _406  and  _407
REMARK  152  A    between atoms: _410  and  _412
REMARK  153  A    between atoms: _412  and  _413
REMARK  154  A    between atoms: _416  and  _418
REMARK  155  A    between atoms: _418  and  _419
REMARK  156  A    between atoms: _418  and  _421
REMARK  157  A    between atoms: _421  and  _422
REMARK  158  A    between atoms: _424  and  _426
REMARK  159  A    between atoms: _426  and  _427
REMARK  160  A    between atoms: _426  and  _429
REMARK  161  A    between atoms: _429  and  _430
REMARK  162  A    between atoms: _430  and  _431
REMARK  163  A    between atoms: _431  and  _432
REMARK  164  A    between atoms: _432  and  _433
REMARK  165  A    between atoms: _437  and  _439
REMARK  166  A    between atoms: _439  and  _440
REMARK  167  A    between atoms: _439  and  _442
REMARK  168  A    between atoms: _442  and  _443
REMARK  169  A    between atoms: _448  and  _450
REMARK  170  A    between atoms: _450  and  _451
REMARK  171  A    between atoms: _450  and  _453
REMARK  172  A    between atoms: _453  and  _454
REMARK  173  A    between atoms: _454  and  _455
REMARK  174  A    between atoms: _457  and  _459
REMARK  175  A    between atoms: _459  and  _460
REMARK  176  A    between atoms: _459  and  _462
REMARK  177  A    between atoms: _462  and  _463
REMARK  178  A    between atoms: _463  and  _464
REMARK  179  A    between atoms: _467  and  _469
REMARK  180  A    between atoms: _469  and  _470
REMARK  181  A    between atoms: _469  and  _472
REMARK  182  A    between atoms: _475  and  _477
REMARK  183  A    between atoms: _477  and  _478
REMARK  184  A    between atoms: _477  and  _480
REMARK  185  A    between atoms: _480  and  _481
REMARK  186  A    between atoms: _484  and  _486
REMARK  187  A    between atoms: _486  and  _487
REMARK  188  A    between atoms: _486  and  _489
REMARK  189  A    between atoms: _489  and  _490
REMARK  190  A    between atoms: _493  and  _495
REMARK  191  A    between atoms: _495  and  _496
REMARK  192  A    between atoms: _495  and  _498
REMARK  193  A    between atoms: _498  and  _499
REMARK  194  A    between atoms: _502  and  _504
REMARK  195  A    between atoms: _504  and  _505
REMARK  196  A    between atoms: _507  and  _509
REMARK  197  A    between atoms: _509  and  _510
REMARK  198  A    between atoms: _512  and  _514
REMARK  199  A    between atoms: _514  and  _515
REMARK  200  A    between atoms: _514  and  _517
REMARK  201  A    between atoms: _517  and  _518
REMARK  202  A    between atoms: _518  and  _519
REMARK  203  A    between atoms: _522  and  _524
REMARK  204  A    between atoms: _524  and  _525
REMARK  205  A    between atoms: _524  and  _527
REMARK  206  A    between atoms: _527  and  _528
REMARK  207  A    between atoms: _531  and  _533
REMARK  208  A    between atoms: _533  and  _534
REMARK  209  A    between atoms: _533  and  _536
REMARK  210  A    between atoms: _536  and  _537
REMARK  211  A    between atoms: _543  and  _545
REMARK  212  A    between atoms: _545  and  _546
REMARK  213  A    between atoms: _549  and  _551
REMARK  214  A    between atoms: _551  and  _552
REMARK  215  A    between atoms: _551  and  _554
REMARK  216  A    between atoms: _554  and  _555
REMARK  217  A    between atoms: _560  and  _562
REMARK  218  A    between atoms: _562  and  _563
REMARK  219  A    between atoms: _562  and  _565
REMARK  220  A    between atoms: _565  and  _566
REMARK  221  A    between atoms: _571  and  _573
REMARK  222  A    between atoms: _573  and  _574
REMARK  223  A    between atoms: _573  and  _576
REMARK  224  A    between atoms: _576  and  _577
REMARK  225  A    between atoms: _580  and  _582
REMARK  226  A    between atoms: _582  and  _583
REMARK  227  A    between atoms: _582  and  _585
REMARK  228  A    between atoms: _585  and  _586
REMARK  229  A    between atoms: _591  and  _593
REMARK  230  A    between atoms: _593  and  _594
REMARK  231  A    between atoms: _593  and  _596
REMARK  232  A    between atoms: _596  and  _597
REMARK  233  A    between atoms: _597  and  _598
REMARK  234  A    between atoms: _598  and  _599
REMARK  235  A    between atoms: _608  and  _610
REMARK  236  A    between atoms: _610  and  _611
REMARK  237  A    between atoms: _613  and  _615
REMARK  238  A    between atoms: _615  and  _616
REMARK  239  A    between atoms: _615  and  _618
REMARK  240  A    between atoms: _618  and  _619
REMARK  241  A    between atoms: _624  and  _626
REMARK  242  A    between atoms: _626  and  _627
REMARK  243  A    between atoms: _629  and  _631
REMARK  244  A    between atoms: _631  and  _632
REMARK  245  A    between atoms: _635  and  _637
REMARK  246  A    between atoms: _637  and  _638
REMARK  247  A    between atoms: _640  and  _642
REMARK  248  A    between atoms: _642  and  _643
REMARK  249  A    between atoms: _645  and  _647
REMARK  250  A    between atoms: _647  and  _648
REMARK  251  A    between atoms: _651  and  _653
REMARK  252  A    between atoms: _653  and  _654
REMARK  253  A    between atoms: _653  and  _656
REMARK  254  A    between atoms: _656  and  _657
REMARK  255  A    between atoms: _657  and  _658
REMARK  256  A    between atoms: _658  and  _659
REMARK  257  A    between atoms: _668  and  _670
REMARK  258  A    between atoms: _670  and  _671
REMARK  259  A    between atoms: _670  and  _673
REMARK  260  A    between atoms: _673  and  _674
REMARK  261  A    between atoms: _677  and  _679
REMARK  262  A    between atoms: _679  and  _680
REMARK  263  A    between atoms: _679  and  _682
REMARK  264  A    between atoms: _682  and  _683
REMARK                            x       y       z     vdW  Elec       q    Type
REMARK                         _______ _______ _______ _____ _____    ______ ____
ROOT
ATOM      1  CA  ASP A   4      -2.382 -17.362 -18.930  0.00  0.00    +0.160 C 
ENDROOT
BRANCH   1   3
ATOM      2  C   ILE A   3      -0.017 -17.310 -19.539  0.00  0.00    +0.241 C 
ATOM      3  N   ASP A   4      -1.062 -16.744 -18.944  0.00  0.00    -0.297 N 
ATOM      4  H   ASP A   4      -0.933 -15.827 -18.471  0.00  0.00    +0.150 HD
ATOM      5  O   ILE A   3      -0.066 -18.405 -20.093  0.00  0.00    -0.273 OA
BRANCH   2   6
ATOM      6  CA  ILE A   3       1.288 -16.534 -19.471  0.00  0.00    +0.149 C 
BRANCH   6   9
ATOM      7  C   VAL A   2       2.066 -16.817 -17.198  0.00  0.00    +0.241 C 
ATOM      8  O   VAL A   2       1.346 -15.908 -16.783  0.00  0.00    -0.273 OA
ATOM      9  N   ILE A   3       2.128 -17.172 -18.474  0.00  0.00    -0.297 N 
ATOM     10  H   ILE A   3       2.789 -17.920 -18.765  0.00  0.00    +0.150 HD
BRANCH   7  11
ATOM     11  CA  VAL A   2       2.977 -17.568 -16.251  0.00  0.00    +0.148 C 
BRANCH  11  13
ATOM     12  C   GLU A   1       5.204 -16.817 -15.627  0.00  0.00    +0.238 C 
ATOM     13  N   VAL A   2       3.905 -16.578 -15.734  0.00  0.00    -0.297 N 
ATOM     14  H   VAL A   2       3.538 -15.651 -15.438  0.00  0.00    +0.150 HD
ATOM     15  O   GLU A   1       5.720 -17.901 -15.911  0.00  0.00    -0.274 OA
BRANCH  12  16
ATOM     16  CA  GLU A   1       6.038 -15.666 -15.095  0.00  0.00    +0.145 C 
BRANCH  16  17
ATOM     17  N   GLU A   1       6.472 -16.008 -13.745  0.00  0.00    -0.238 NA
ATOM     18  H   GLU A   1       7.421 -16.405 -13.590  0.00  0.00    +0.142 HD
ENDBRANCH  16  17
BRANCH  16  19
ATOM     19  CB  GLU A   1       7.221 -15.439 -16.041  0.00  0.00    +0.038 C 
BRANCH  19  20
ATOM     20  CG  GLU A   1       6.778 -14.949 -17.428  0.00  0.00    +0.116 C 
BRANCH  20  21
ATOM     21  CD  GLU A   1       7.392 -15.731 -18.582  0.00  0.00    +0.365 C 
ATOM     22  OE2 GLU A   1       7.950 -16.823 -18.342  0.00  0.00    -0.246 OA
ATOM     23  OE1 GLU A   1       7.302 -15.261 -19.739  0.00  0.00    -0.246 OA
ENDBRANCH  20  21
ENDBRANCH  19  20
ENDBRANCH  16  19
ENDBRANCH  12  16
ENDBRANCH  11  13
BRANCH  11  24
ATOM     24  CB  VAL A   2       2.114 -18.204 -15.132  0.00  0.00    +0.027 C 
ATOM     25  CG2 VAL A   2       2.999 -18.956 -14.153  0.00  0.00    +0.002 C 
ATOM     26  CG1 VAL A   2       1.084 -19.156 -15.748  0.00  0.00    +0.002 C 
ENDBRANCH  11  24
ENDBRANCH   7  11
ENDBRANCH   6   9
BRANCH   6  27
ATOM     27  CB  ILE A   3       1.962 -16.536 -20.862  0.00  0.00    +0.027 C 
ATOM     28  CG2 ILE A   3       1.024 -15.933 -21.897  0.00  0.00    +0.002 C 
BRANCH  27  29
ATOM     29  CG1 ILE A   3       3.260 -15.727 -20.804  0.00  0.00    +0.002 C 
ATOM     30  CD1 ILE A   3       4.057 -15.735 -22.087  0.00  0.00    +0.000 C 
ENDBRANCH  27  29
ENDBRANCH   6  27
ENDBRANCH   2   6
ENDBRANCH   1   3
BRANCH   1  31
ATOM     31  C   ASP A   4      -3.381 -16.348 -19.466  0.00  0.00    +0.241 C 
ATOM     32  O   ASP A   4      -3.768 -15.412 -18.767  0.00  0.00    -0.273 OA
ATOM     33  N   LEU A   5      -3.768 -16.530 -20.724  0.00  0.00    -0.297 N 
ATOM     34  H   LEU A   5      -3.375 -17.332 -21.257  0.00  0.00    +0.150 HD
BRANCH  33  35
ATOM     35  CA  LEU A   5      -4.721 -15.650 -21.384  0.00  0.00    +0.149 C 
BRANCH  35  36
ATOM     36  C   LEU A   5      -6.003 -16.435 -21.634  0.00  0.00    +0.241 C 
ATOM     37  N   GLY A   6      -6.114 -17.585 -20.973  0.00  0.00    -0.295 N 
ATOM     38  H   GLY A   6      -5.352 -17.879 -20.329  0.00  0.00    +0.150 HD
ATOM     39  O   LEU A   5      -6.863 -16.009 -22.401  0.00  0.00    -0.273 OA
BRANCH  37  40
ATOM     40  CA  GLY A   6      -7.278 -18.437 -21.134  0.00  0.00    +0.176 C 
BRANCH  40  41
ATOM     41  C   GLY A   6      -7.054 -19.420 -22.269  0.00  0.00    +0.243 C 
ATOM     42  N   GLY A   7      -7.979 -20.359 -22.440  0.00  0.00    -0.295 N 
ATOM     43  H   GLY A   7      -8.795 -20.402 -21.796  0.00  0.00    +0.150 HD
ATOM     44  O   GLY A   6      -6.044 -19.338 -22.974  0.00  0.00    -0.273 OA
BRANCH  42  45
ATOM     45  CA  GLY A   7      -7.861 -21.326 -23.519  0.00  0.00    +0.176 C 
BRANCH  45  46
ATOM     46  C   GLY A   7      -6.865 -22.454 -23.316  0.00  0.00    +0.243 C 
ATOM     47  N   GLU A   8      -6.225 -22.497 -22.153  0.00  0.00    -0.298 N 
ATOM     48  H   GLU A   8      -6.415 -21.764 -21.440  0.00  0.00    +0.150 HD
ATOM     49  O   GLY A   7      -6.670 -23.273 -24.212  0.00  0.00    -0.273 OA
BRANCH  47  50
ATOM     50  CA  GLU A   8      -5.261 -23.551 -21.855  0.00  0.00    +0.137 C 
BRANCH  50  51
ATOM     51  C   GLU A   8      -5.573 -24.190 -20.507  0.00  0.00    +0.227 C 
ATOM     52  O   GLU A   8      -6.164 -23.556 -19.635  0.00  0.00    -0.286 OA
ENDBRANCH  50  51
BRANCH  50  53
ATOM     53  CB  GLU A   8      -3.837 -22.987 -21.830  0.00  0.00    +0.039 C 
BRANCH  53  54
ATOM     54  CG  GLU A   8      -3.245 -22.681 -23.199  0.00  0.00    +0.116 C 
BRANCH  54  55
ATOM     55  CD  GLU A   8      -1.803 -22.206 -23.107  0.00  0.00    +0.365 C 
ATOM     56  OE2 GLU A   8      -1.177 -22.396 -22.040  0.00  0.00    -0.246 OA
ATOM     57  OE1 GLU A   8      -1.292 -21.654 -24.103  0.00  0.00    -0.246 OA
ENDBRANCH  54  55
ENDBRANCH  53  54
ENDBRANCH  50  53
ENDBRANCH  47  50
ENDBRANCH  45  46
ENDBRANCH  42  45
ENDBRANCH  40  41
ENDBRANCH  37  40
ENDBRANCH  35  36
BRANCH  35  58
ATOM     58  CB  LEU A   5      -4.146 -15.156 -22.717  0.00  0.00    +0.029 C 
BRANCH  58  59
ATOM     59  CG  LEU A   5      -2.851 -14.341 -22.629  0.00  0.00    +0.002 C 
ATOM     60  CD2 LEU A   5      -3.101 -13.078 -21.823  0.00  0.00    +0.000 C 
ATOM     61  CD1 LEU A   5      -2.356 -13.989 -24.025  0.00  0.00    +0.000 C 
ENDBRANCH  58  59
ENDBRANCH  35  58
ENDBRANCH  33  35
ENDBRANCH   1  31
BRANCH   1  62
ATOM     62  CB  ASP A   4      -2.757 -17.784 -17.501  0.00  0.00    +0.143 C 
BRANCH  62  63
ATOM     63  CG  ASP A   4      -4.195 -18.270 -17.386  0.00  0.00    +0.367 C 
ATOM     64  OD2 ASP A   4      -4.714 -18.323 -16.250  0.00  0.00    -0.246 OA
ATOM     65  OD1 ASP A   4      -4.805 -18.605 -18.425  0.00  0.00    -0.246 OA
ENDBRANCH  62  63
ENDBRANCH   1  62
TORSDOF 29
REMARK  Name = ../refined-set-2016/3old/3old_pocket.pdb
REMARK  264 active torsions:
REMARK  status: ('A' for Active; 'I' for Inactive)
REMARK    1  A    between atoms: _1  and  _3
REMARK    2  A    between atoms: _3  and  _4
REMARK    3  A    between atoms: _3  and  _6
REMARK    4  A    between atoms: _6  and  _7
REMARK    5  A    between atoms: _12  and  _14
REMARK    6  A    between atoms: _14  and  _15
REMARK    7  A    between atoms: _14  and  _17
REMARK    8  A    between atoms: _17  and  _18
REMARK    9  A    between atoms: _24  and  _26
REMARK   10  A    between atoms: _26  and  _27
REMARK   11  A    between atoms: _26  and  _29
REMARK   12  A    between atoms: _29  and  _30
REMARK   13  A    between atoms: _30  and  _31
REMARK   14  A    between atoms: _37  and  _38
REMARK   15  A    between atoms: _43  and  _45
REMARK   16  A    between atoms: _45  and  _46
REMARK   17  A    between atoms: _45  and  _48
REMARK   18  A    between atoms: _48  and  _49
REMARK   19  A    between atoms: _54  and  _56
REMARK   20  A    between atoms: _56  and  _57
REMARK   21  A    between atoms: _56  and  _59
REMARK   22  A    between atoms: _62  and  _64
REMARK   23  A    between atoms: _64  and  _65
REMARK   24  A    between atoms: _64  and  _67
REMARK   25  A    between atoms: _67  and  _68
REMARK   26  A    between atoms: _72  and  _73
REMARK   27  A    between atoms: _79  and  _80
REMARK   28  A    between atoms: _85  and  _87
REMARK   29  A    between atoms: _87  and  _88
REMARK   30  A    between atoms: _87  and  _90
REMARK   31  A    between atoms: _90  and  _91
REMARK   32  A    between atoms: _101  and  _103
REMARK   33  A    between atoms: _103  and  _104
REMARK   34  A    between atoms: _103  and  _106
REMARK   35  A    between atoms: _106  and  _107
REMARK   36  A    between atoms: _117  and  _119
REMARK   37  A    between atoms: _119  and  _120
REMARK   38  A    between atoms: _119  and  _122
REMARK   39  A    between atoms: _122  and  _123
REMARK   40  A    between atoms: _123  and  _124
REMARK   41  A    between atoms: _127  and  _129
REMARK   42  A    between atoms: _129  and  _130
REMARK   43  A    between atoms: _129  and  _132
REMARK   44  A    between atoms: _132  and  _133
REMARK   45  A    between atoms: _133  and  _134
REMARK   46  A    between atoms: _134  and  _135
REMARK   47  A    between atoms: _144  and  _146
REMARK   48  A    between atoms: _146  and  _147
REMARK   49  A    between atoms: _146  and  _149
REMARK   50  A    between atoms: _149  and  _150
REMARK   51  A    between atoms: _155  and  _156
REMARK   52  A    between atoms: _158  and  _160
REMARK   53  A    between atoms: _160  and  _161
REMARK   54  A    between atoms: _160  and  _163
REMARK   55  A    between atoms: _163  and  _164
REMARK   56  A    between atoms: _164  and  _165
REMARK   57  A    between atoms: _171  and  _172
REMARK   58  A    between atoms: _177  and  _179
REMARK   59  A    between atoms: _179  and  _180
REMARK   60  A    between atoms: _179  and  _182
REMARK   61  A    between atoms: _182  and  _183
REMARK   62  A    between atoms: _186  and  _188
REMARK   63  A    between atoms: _188  and  _189
REMARK   64  A    between atoms: _192  and  _194
REMARK   65  A    between atoms: _194  and  _195
REMARK   66  A    between atoms: _194  and  _197
REMARK   67  A    between atoms: _200  and  _202
REMARK   68  A    between atoms: _202  and  _203
REMARK   69  A    between atoms: _202  and  _205
REMARK   70  A    between atoms: _205  and  _206
REMARK   71  A    between atoms: _209  and  _211
REMARK   72  A    between atoms: _211  and  _212
REMARK   73  A    between atoms: _211  and  _214
REMARK   74  A    between atoms: _214  and  _215
REMARK   75  A    between atoms: _220  and  _222
REMARK   76  A    between atoms: _222  and  _223
REMARK   77  A    between atoms: _222  and  _225
REMARK   78  A    between atoms: _225  and  _226
REMARK   79  A    between atoms: _231  and  _233
REMARK   80  A    between atoms: _233  and  _234
REMARK   81  A    between atoms: _233  and  _236
REMARK   82  A    between atoms: _236  and  _237
REMARK   83  A    between atoms: _237  and  _238
REMARK   84  A    between atoms: _240  and  _242
REMARK   85  A    between atoms: _242  and  _243
REMARK   86  A    between atoms: _242  and  _245
REMARK   87  A    between atoms: _247  and  _249
REMARK   88  A    between atoms: _249  and  _250
REMARK   89  A    between atoms: _252  and  _254
REMARK   90  A    between atoms: _254  and  _255
REMARK   91  A    between atoms: _254  and  _257
REMARK   92  A    between atoms: _257  and  _258
REMARK   93  A    between atoms: _263  and  _265
REMARK   94  A    between atoms: _265  and  _266
REMARK   95  A    between atoms: _269  and  _271
REMARK   96  A    between atoms: _271  and  _272
REMARK   97  A    between atoms: _271  and  _274
REMARK   98  A    between atoms: _277  and  _279
REMARK   99  A    between atoms: _279  and  _280
REMARK  100  A    between atoms: _279  and  _282
REMARK  101  A    between atoms: _282  and  _283
REMARK  102  A    between atoms: _286  and  _288
REMARK  103  A    between atoms: _288  and  _289
REMARK  104  A    between atoms: _288  and  _291
REMARK  105  A    between atoms: _291  and  _292
REMARK  106  A    between atoms: _295  and  _297
REMARK  107  A    between atoms: _297  and  _298
REMARK  108  A    between atoms: _297  and  _300
REMARK  109  A    between atoms: _300  and  _301
REMARK  110  A    between atoms: _306  and  _307
REMARK  111  A    between atoms: _309  and  _311
REMARK  112  A    between atoms: _311  and  _312
REMARK  113  A    between atoms: _311  and  _314
REMARK  114  A    between atoms: _317  and  _319
REMARK  115  A    between atoms: _319  and  _320
REMARK  116  A    between atoms: _319  and  _322
REMARK  117  A    between atoms: _322  and  _323
REMARK  118  A    between atoms: _323  and  _324
REMARK  119  A    between atoms: _324  and  _325
REMARK  120  A    between atoms: _334  and  _336
REMARK  121  A    between atoms: _336  and  _337
REMARK  122  A    between atoms: _336  and  _339
REMARK  123  A    between atoms: _339  and  _340
REMARK  124  A    between atoms: _343  and  _345
REMARK  125  A    between atoms: _345  and  _346
REMARK  126  A    between atoms: _345  and  _348
REMARK  127  A    between atoms: _348  and  _349
REMARK  128  A    between atoms: _352  and  _354
REMARK  129  A    between atoms: _354  and  _355
REMARK  130  A    between atoms: _357  and  _359
REMARK  131  A    between atoms: _359  and  _360
REMARK  132  A    between atoms: _359  and  _362
REMARK  133  A    between atoms: _362  and  _363
REMARK  134  A    between atoms: _366  and  _368
REMARK  135  A    between atoms: _368  and  _369
REMARK  136  A    between atoms: _368  and  _371
REMARK  137  A    between atoms: _371  and  _372
REMARK  138  A    between atoms: _375  and  _377
REMARK  139  A    between atoms: _377  and  _378
REMARK  140  A    between atoms: _377  and  _380
REMARK  141  A    between atoms: _380  and  _381
REMARK  142  A    between atoms: _381  and  _382
REMARK  143  A    between atoms: _382  and  _383
REMARK  144  A    between atoms: _392  and  _394
REMARK  145  A    between atoms: _394  and  _395
REMARK  146  A    between atoms: _394  and  _397
REMARK  147  A    between atoms: _397  and  _398
REMARK  148  A    between atoms: _401  and  _403
REMARK  149  A    between atoms: _403  and  _404
REMARK  150  A    between atoms: _403  and  _406
REMARK  151  A    between atoms: _406  and  _407
REMARK  152  A    between atoms: _410  and  _412
REMARK  153  A    between atoms: _412  and  _413
REMARK  154  A    between atoms: _416  and  _418
REMARK  155  A    between atoms: _418  and  _419
REMARK  156  A    between atoms: _418  and  _421
REMARK  157  A    between atoms: _421  and  _422
REMARK  158  A    between atoms: _424  and  _426
REMARK  159  A    between atoms: _426  and  _427
REMARK  160  A    between atoms: _426  and  _429
REMARK  161  A    between atoms: _429  and  _430
REMARK  162  A    between atoms: _430  and  _431
REMARK  163  A    between atoms: _431  and  _432
REMARK  164  A    between atoms: _432  and  _433
REMARK  165  A    between atoms: _437  and  _439
REMARK  166  A    between atoms: _439  and  _440
REMARK  167  A    between atoms: _439  and  _442
REMARK  168  A    between atoms: _442  and  _443
REMARK  169  A    between atoms: _448  and  _450
REMARK  170  A    between atoms: _450  and  _451
REMARK  171  A    between atoms: _450  and  _453
REMARK  172  A    between atoms: _453  and  _454
REMARK  173  A    between atoms: _454  and  _455
REMARK  174  A    between atoms: _457  and  _459
REMARK  175  A    between atoms: _459  and  _460
REMARK  176  A    between atoms: _459  and  _462
REMARK  177  A    between atoms: _462  and  _463
REMARK  178  A    between atoms: _463  and  _464
REMARK  179  A    between atoms: _467  and  _469
REMARK  180  A    between atoms: _469  and  _470
REMARK  181  A    between atoms: _469  and  _472
REMARK  182  A    between atoms: _475  and  _477
REMARK  183  A    between atoms: _477  and  _478
REMARK  184  A    between atoms: _477  and  _480
REMARK  185  A    between atoms: _480  and  _481
REMARK  186  A    between atoms: _484  and  _486
REMARK  187  A    between atoms: _486  and  _487
REMARK  188  A    between atoms: _486  and  _489
REMARK  189  A    between atoms: _489  and  _490
REMARK  190  A    between atoms: _493  and  _495
REMARK  191  A    between atoms: _495  and  _496
REMARK  192  A    between atoms: _495  and  _498
REMARK  193  A    between atoms: _498  and  _499
REMARK  194  A    between atoms: _502  and  _504
REMARK  195  A    between atoms: _504  and  _505
REMARK  196  A    between atoms: _507  and  _509
REMARK  197  A    between atoms: _509  and  _510
REMARK  198  A    between atoms: _512  and  _514
REMARK  199  A    between atoms: _514  and  _515
REMARK  200  A    between atoms: _514  and  _517
REMARK  201  A    between atoms: _517  and  _518
REMARK  202  A    between atoms: _518  and  _519
REMARK  203  A    between atoms: _522  and  _524
REMARK  204  A    between atoms: _524  and  _525
REMARK  205  A    between atoms: _524  and  _527
REMARK  206  A    between atoms: _527  and  _528
REMARK  207  A    between atoms: _531  and  _533
REMARK  208  A    between atoms: _533  and  _534
REMARK  209  A    between atoms: _533  and  _536
REMARK  210  A    between atoms: _536  and  _537
REMARK  211  A    between atoms: _543  and  _545
REMARK  212  A    between atoms: _545  and  _546
REMARK  213  A    between atoms: _549  and  _551
REMARK  214  A    between atoms: _551  and  _552
REMARK  215  A    between atoms: _551  and  _554
REMARK  216  A    between atoms: _554  and  _555
REMARK  217  A    between atoms: _560  and  _562
REMARK  218  A    between atoms: _562  and  _563
REMARK  219  A    between atoms: _562  and  _565
REMARK  220  A    between atoms: _565  and  _566
REMARK  221  A    between atoms: _571  and  _573
REMARK  222  A    between atoms: _573  and  _574
REMARK  223  A    between atoms: _573  and  _576
REMARK  224  A    between atoms: _576  and  _577
REMARK  225  A    between atoms: _580  and  _582
REMARK  226  A    between atoms: _582  and  _583
REMARK  227  A    between atoms: _582  and  _585
REMARK  228  A    between atoms: _585  and  _586
REMARK  229  A    between atoms: _591  and  _593
REMARK  230  A    between atoms: _593  and  _594
REMARK  231  A    between atoms: _593  and  _596
REMARK  232  A    between atoms: _596  and  _597
REMARK  233  A    between atoms: _597  and  _598
REMARK  234  A    between atoms: _598  and  _599
REMARK  235  A    between atoms: _608  and  _610
REMARK  236  A    between atoms: _610  and  _611
REMARK  237  A    between atoms: _613  and  _615
REMARK  238  A    between atoms: _615  and  _616
REMARK  239  A    between atoms: _615  and  _618
REMARK  240  A    between atoms: _618  and  _619
REMARK  241  A    between atoms: _624  and  _626
REMARK  242  A    between atoms: _626  and  _627
REMARK  243  A    between atoms: _629  and  _631
REMARK  244  A    between atoms: _631  and  _632
REMARK  245  A    between atoms: _635  and  _637
REMARK  246  A    between atoms: _637  and  _638
REMARK  247  A    between atoms: _640  and  _642
REMARK  248  A    between atoms: _642  and  _643
REMARK  249  A    between atoms: _645  and  _647
REMARK  250  A    between atoms: _647  and  _648
REMARK  251  A    between atoms: _651  and  _653
REMARK  252  A    between atoms: _653  and  _654
REMARK  253  A    between atoms: _653  and  _656
REMARK  254  A    between atoms: _656  and  _657
REMARK  255  A    between atoms: _657  and  _658
REMARK  256  A    between atoms: _658  and  _659
REMARK  257  A    between atoms: _668  and  _670
REMARK  258  A    between atoms: _670  and  _671
REMARK  259  A    between atoms: _670  and  _673
REMARK  260  A    between atoms: _673  and  _674
REMARK  261  A    between atoms: _677  and  _679
REMARK  262  A    between atoms: _679  and  _680
REMARK  263  A    between atoms: _679  and  _682
REMARK  264  A    between atoms: _682  and  _683
REMARK                            x       y       z     vdW  Elec       q    Type
REMARK                         _______ _______ _______ _____ _____    ______ ____
ROOT
ATOM      1  CA  ILE A   1      -2.748 -24.435 -16.944  0.00  0.00    +0.133 C 
ENDROOT
BRANCH   1   2
ATOM      2  N   ILE A   1      -3.506 -25.034 -18.041  0.00  0.00    -0.239 NA
ATOM      3  H   ILE A   1      -3.089 -25.066 -18.993  0.00  0.00    +0.142 HD
ENDBRANCH   1   2
BRANCH   1   4
ATOM      4  C   ILE A   1      -3.250 -23.029 -16.637  0.00  0.00    +0.224 C 
ATOM      5  O   ILE A   1      -3.329 -22.185 -17.527  0.00  0.00    -0.287 OA
ENDBRANCH   1   4
BRANCH   1   6
ATOM      6  CB  ILE A   1      -1.239 -24.365 -17.277  0.00  0.00    +0.023 C 
ATOM      7  CG2 ILE A   1      -0.488 -23.684 -16.138  0.00  0.00    +0.002 C 
BRANCH   6   8
ATOM      8  CG1 ILE A   1      -0.686 -25.778 -17.495  0.00  0.00    +0.002 C 
ATOM      9  CD1 ILE A   1       0.727 -25.803 -18.057  0.00  0.00    +0.000 C 
ENDBRANCH   6   8
ENDBRANCH   1   6
TORSDOF 4
REMARK  Name = ../refined-set-2016/3old/3old_pocket.pdb
REMARK  264 active torsions:
REMARK  status: ('A' for Active; 'I' for Inactive)
REMARK    1  A    between atoms: _1  and  _3
REMARK    2  A    between atoms: _3  and  _4
REMARK    3  A    between atoms: _3  and  _6
REMARK    4  A    between atoms: _6  and  _7
REMARK    5  A    between atoms: _12  and  _14
REMARK    6  A    between atoms: _14  and  _15
REMARK    7  A    between atoms: _14  and  _17
REMARK    8  A    between atoms: _17  and  _18
REMARK    9  A    between atoms: _24  and  _26
REMARK   10  A    between atoms: _26  and  _27
REMARK   11  A    between atoms: _26  and  _29
REMARK   12  A    between atoms: _29  and  _30
REMARK   13  A    between atoms: _30  and  _31
REMARK   14  A    between atoms: _37  and  _38
REMARK   15  A    between atoms: _43  and  _45
REMARK   16  A    between atoms: _45  and  _46
REMARK   17  A    between atoms: _45  and  _48
REMARK   18  A    between atoms: _48  and  _49
REMARK   19  A    between atoms: _54  and  _56
REMARK   20  A    between atoms: _56  and  _57
REMARK   21  A    between atoms: _56  and  _59
REMARK   22  A    between atoms: _62  and  _64
REMARK   23  A    between atoms: _64  and  _65
REMARK   24  A    between atoms: _64  and  _67
REMARK   25  A    between atoms: _67  and  _68
REMARK   26  A    between atoms: _72  and  _73
REMARK   27  A    between atoms: _79  and  _80
REMARK   28  A    between atoms: _85  and  _87
REMARK   29  A    between atoms: _87  and  _88
REMARK   30  A    between atoms: _87  and  _90
REMARK   31  A    between atoms: _90  and  _91
REMARK   32  A    between atoms: _101  and  _103
REMARK   33  A    between atoms: _103  and  _104
REMARK   34  A    between atoms: _103  and  _106
REMARK   35  A    between atoms: _106  and  _107
REMARK   36  A    between atoms: _117  and  _119
REMARK   37  A    between atoms: _119  and  _120
REMARK   38  A    between atoms: _119  and  _122
REMARK   39  A    between atoms: _122  and  _123
REMARK   40  A    between atoms: _123  and  _124
REMARK   41  A    between atoms: _127  and  _129
REMARK   42  A    between atoms: _129  and  _130
REMARK   43  A    between atoms: _129  and  _132
REMARK   44  A    between atoms: _132  and  _133
REMARK   45  A    between atoms: _133  and  _134
REMARK   46  A    between atoms: _134  and  _135
REMARK   47  A    between atoms: _144  and  _146
REMARK   48  A    between atoms: _146  and  _147
REMARK   49  A    between atoms: _146  and  _149
REMARK   50  A    between atoms: _149  and  _150
REMARK   51  A    between atoms: _155  and  _156
REMARK   52  A    between atoms: _158  and  _160
REMARK   53  A    between atoms: _160  and  _161
REMARK   54  A    between atoms: _160  and  _163
REMARK   55  A    between atoms: _163  and  _164
REMARK   56  A    between atoms: _164  and  _165
REMARK   57  A    between atoms: _171  and  _172
REMARK   58  A    between atoms: _177  and  _179
REMARK   59  A    between atoms: _179  and  _180
REMARK   60  A    between atoms: _179  and  _182
REMARK   61  A    between atoms: _182  and  _183
REMARK   62  A    between atoms: _186  and  _188
REMARK   63  A    between atoms: _188  and  _189
REMARK   64  A    between atoms: _192  and  _194
REMARK   65  A    between atoms: _194  and  _195
REMARK   66  A    between atoms: _194  and  _197
REMARK   67  A    between atoms: _200  and  _202
REMARK   68  A    between atoms: _202  and  _203
REMARK   69  A    between atoms: _202  and  _205
REMARK   70  A    between atoms: _205  and  _206
REMARK   71  A    between atoms: _209  and  _211
REMARK   72  A    between atoms: _211  and  _212
REMARK   73  A    between atoms: _211  and  _214
REMARK   74  A    between atoms: _214  and  _215
REMARK   75  A    between atoms: _220  and  _222
REMARK   76  A    between atoms: _222  and  _223
REMARK   77  A    between atoms: _222  and  _225
REMARK   78  A    between atoms: _225  and  _226
REMARK   79  A    between atoms: _231  and  _233
REMARK   80  A    between atoms: _233  and  _234
REMARK   81  A    between atoms: _233  and  _236
REMARK   82  A    between atoms: _236  and  _237
REMARK   83  A    between atoms: _237  and  _238
REMARK   84  A    between atoms: _240  and  _242
REMARK   85  A    between atoms: _242  and  _243
REMARK   86  A    between atoms: _242  and  _245
REMARK   87  A    between atoms: _247  and  _249
REMARK   88  A    between atoms: _249  and  _250
REMARK   89  A    between atoms: _252  and  _254
REMARK   90  A    between atoms: _254  and  _255
REMARK   91  A    between atoms: _254  and  _257
REMARK   92  A    between atoms: _257  and  _258
REMARK   93  A    between atoms: _263  and  _265
REMARK   94  A    between atoms: _265  and  _266
REMARK   95  A    between atoms: _269  and  _271
REMARK   96  A    between atoms: _271  and  _272
REMARK   97  A    between atoms: _271  and  _274
REMARK   98  A    between atoms: _277  and  _279
REMARK   99  A    between atoms: _279  and  _280
REMARK  100  A    between atoms: _279  and  _282
REMARK  101  A    between atoms: _282  and  _283
REMARK  102  A    between atoms: _286  and  _288
REMARK  103  A    between atoms: _288  and  _289
REMARK  104  A    between atoms: _288  and  _291
REMARK  105  A    between atoms: _291  and  _292
REMARK  106  A    between atoms: _295  and  _297
REMARK  107  A    between atoms: _297  and  _298
REMARK  108  A    between atoms: _297  and  _300
REMARK  109  A    between atoms: _300  and  _301
REMARK  110  A    between atoms: _306  and  _307
REMARK  111  A    between atoms: _309  and  _311
REMARK  112  A    between atoms: _311  and  _312
REMARK  113  A    between atoms: _311  and  _314
REMARK  114  A    between atoms: _317  and  _319
REMARK  115  A    between atoms: _319  and  _320
REMARK  116  A    between atoms: _319  and  _322
REMARK  117  A    between atoms: _322  and  _323
REMARK  118  A    between atoms: _323  and  _324
REMARK  119  A    between atoms: _324  and  _325
REMARK  120  A    between atoms: _334  and  _336
REMARK  121  A    between atoms: _336  and  _337
REMARK  122  A    between atoms: _336  and  _339
REMARK  123  A    between atoms: _339  and  _340
REMARK  124  A    between atoms: _343  and  _345
REMARK  125  A    between atoms: _345  and  _346
REMARK  126  A    between atoms: _345  and  _348
REMARK  127  A    between atoms: _348  and  _349
REMARK  128  A    between atoms: _352  and  _354
REMARK  129  A    between atoms: _354  and  _355
REMARK  130  A    between atoms: _357  and  _359
REMARK  131  A    between atoms: _359  and  _360
REMARK  132  A    between atoms: _359  and  _362
REMARK  133  A    between atoms: _362  and  _363
REMARK  134  A    between atoms: _366  and  _368
REMARK  135  A    between atoms: _368  and  _369
REMARK  136  A    between atoms: _368  and  _371
REMARK  137  A    between atoms: _371  and  _372
REMARK  138  A    between atoms: _375  and  _377
REMARK  139  A    between atoms: _377  and  _378
REMARK  140  A    between atoms: _377  and  _380
REMARK  141  A    between atoms: _380  and  _381
REMARK  142  A    between atoms: _381  and  _382
REMARK  143  A    between atoms: _382  and  _383
REMARK  144  A    between atoms: _392  and  _394
REMARK  145  A    between atoms: _394  and  _395
REMARK  146  A    between atoms: _394  and  _397
REMARK  147  A    between atoms: _397  and  _398
REMARK  148  A    between atoms: _401  and  _403
REMARK  149  A    between atoms: _403  and  _404
REMARK  150  A    between atoms: _403  and  _406
REMARK  151  A    between atoms: _406  and  _407
REMARK  152  A    between atoms: _410  and  _412
REMARK  153  A    between atoms: _412  and  _413
REMARK  154  A    between atoms: _416  and  _418
REMARK  155  A    between atoms: _418  and  _419
REMARK  156  A    between atoms: _418  and  _421
REMARK  157  A    between atoms: _421  and  _422
REMARK  158  A    between atoms: _424  and  _426
REMARK  159  A    between atoms: _426  and  _427
REMARK  160  A    between atoms: _426  and  _429
REMARK  161  A    between atoms: _429  and  _430
REMARK  162  A    between atoms: _430  and  _431
REMARK  163  A    between atoms: _431  and  _432
REMARK  164  A    between atoms: _432  and  _433
REMARK  165  A    between atoms: _437  and  _439
REMARK  166  A    between atoms: _439  and  _440
REMARK  167  A    between atoms: _439  and  _442
REMARK  168  A    between atoms: _442  and  _443
REMARK  169  A    between atoms: _448  and  _450
REMARK  170  A    between atoms: _450  and  _451
REMARK  171  A    between atoms: _450  and  _453
REMARK  172  A    between atoms: _453  and  _454
REMARK  173  A    between atoms: _454  and  _455
REMARK  174  A    between atoms: _457  and  _459
REMARK  175  A    between atoms: _459  and  _460
REMARK  176  A    between atoms: _459  and  _462
REMARK  177  A    between atoms: _462  and  _463
REMARK  178  A    between atoms: _463  and  _464
REMARK  179  A    between atoms: _467  and  _469
REMARK  180  A    between atoms: _469  and  _470
REMARK  181  A    between atoms: _469  and  _472
REMARK  182  A    between atoms: _475  and  _477
REMARK  183  A    between atoms: _477  and  _478
REMARK  184  A    between atoms: _477  and  _480
REMARK  185  A    between atoms: _480  and  _481
REMARK  186  A    between atoms: _484  and  _486
REMARK  187  A    between atoms: _486  and  _487
REMARK  188  A    between atoms: _486  and  _489
REMARK  189  A    between atoms: _489  and  _490
REMARK  190  A    between atoms: _493  and  _495
REMARK  191  A    between atoms: _495  and  _496
REMARK  192  A    between atoms: _495  and  _498
REMARK  193  A    between atoms: _498  and  _499
REMARK  194  A    between atoms: _502  and  _504
REMARK  195  A    between atoms: _504  and  _505
REMARK  196  A    between atoms: _507  and  _509
REMARK  197  A    between atoms: _509  and  _510
REMARK  198  A    between atoms: _512  and  _514
REMARK  199  A    between atoms: _514  and  _515
REMARK  200  A    between atoms: _514  and  _517
REMARK  201  A    between atoms: _517  and  _518
REMARK  202  A    between atoms: _518  and  _519
REMARK  203  A    between atoms: _522  and  _524
REMARK  204  A    between atoms: _524  and  _525
REMARK  205  A    between atoms: _524  and  _527
REMARK  206  A    between atoms: _527  and  _528
REMARK  207  A    between atoms: _531  and  _533
REMARK  208  A    between atoms: _533  and  _534
REMARK  209  A    between atoms: _533  and  _536
REMARK  210  A    between atoms: _536  and  _537
REMARK  211  A    between atoms: _543  and  _545
REMARK  212  A    between atoms: _545  and  _546
REMARK  213  A    between atoms: _549  and  _551
REMARK  214  A    between atoms: _551  and  _552
REMARK  215  A    between atoms: _551  and  _554
REMARK  216  A    between atoms: _554  and  _555
REMARK  217  A    between atoms: _560  and  _562
REMARK  218  A    between atoms: _562  and  _563
REMARK  219  A    between atoms: _562  and  _565
REMARK  220  A    between atoms: _565  and  _566
REMARK  221  A    between atoms: _571  and  _573
REMARK  222  A    between atoms: _573  and  _574
REMARK  223  A    between atoms: _573  and  _576
REMARK  224  A    between atoms: _576  and  _577
REMARK  225  A    between atoms: _580  and  _582
REMARK  226  A    between atoms: _582  and  _583
REMARK  227  A    between atoms: _582  and  _585
REMARK  228  A    between atoms: _585  and  _586
REMARK  229  A    between atoms: _591  and  _593
REMARK  230  A    between atoms: _593  and  _594
REMARK  231  A    between atoms: _593  and  _596
REMARK  232  A    between atoms: _596  and  _597
REMARK  233  A    between atoms: _597  and  _598
REMARK  234  A    between atoms: _598  and  _599
REMARK  235  A    between atoms: _608  and  _610
REMARK  236  A    between atoms: _610  and  _611
REMARK  237  A    between atoms: _613  and  _615
REMARK  238  A    between atoms: _615  and  _616
REMARK  239  A    between atoms: _615  and  _618
REMARK  240  A    between atoms: _618  and  _619
REMARK  241  A    between atoms: _624  and  _626
REMARK  242  A    between atoms: _626  and  _627
REMARK  243  A    between atoms: _629  and  _631
REMARK  244  A    between atoms: _631  and  _632
REMARK  245  A    between atoms: _635  and  _637
REMARK  246  A    between atoms: _637  and  _638
REMARK  247  A    between atoms: _640  and  _642
REMARK  248  A    between atoms: _642  and  _643
REMARK  249  A    between atoms: _645  and  _647
REMARK  250  A    between atoms: _647  and  _648
REMARK  251  A    between atoms: _651  and  _653
REMARK  252  A    between atoms: _653  and  _654
REMARK  253  A    between atoms: _653  and  _656
REMARK  254  A    between atoms: _656  and  _657
REMARK  255  A    between atoms: _657  and  _658
REMARK  256  A    between atoms: _658  and  _659
REMARK  257  A    between atoms: _668  and  _670
REMARK  258  A    between atoms: _670  and  _671
REMARK  259  A    between atoms: _670  and  _673
REMARK  260  A    between atoms: _673  and  _674
REMARK  261  A    between atoms: _677  and  _679
REMARK  262  A    between atoms: _679  and  _680
REMARK  263  A    between atoms: _679  and  _682
REMARK  264  A    between atoms: _682  and  _683
REMARK                            x       y       z     vdW  Elec       q    Type
REMARK                         _______ _______ _______ _____ _____    ______ ____
ROOT
ATOM      1  CB  PHE A   1       0.087 -12.111 -19.748  0.00  0.00    +0.051 C 
ENDROOT
BRANCH   1   2
ATOM      2  CG  PHE A   1       1.582 -12.195 -19.638  0.00  0.00    -0.020 A 
ATOM      3  CD2 PHE A   1       2.174 -12.931 -18.620  0.00  0.00    -0.004 A 
ATOM      4  CE2 PHE A   1       3.562 -12.968 -18.477  0.00  0.00    -0.000 A 
ATOM      5  CZ  PHE A   1       4.369 -12.263 -19.361  0.00  0.00    -0.000 A 
ATOM      6  CE1 PHE A   1       3.788 -11.524 -20.387  0.00  0.00    -0.000 A 
ATOM      7  CD1 PHE A   1       2.399 -11.493 -20.521  0.00  0.00    -0.004 A 
ENDBRANCH   1   2
BRANCH   1   8
ATOM      8  CA  PHE A   1      -0.518 -10.966 -18.932  0.00  0.00    +0.137 C 
BRANCH   8   9
ATOM      9  N   PHE A   1      -0.670 -11.380 -17.541  0.00  0.00    -0.239 NA
ATOM     10  H   PHE A   1      -0.641 -12.392 -17.303  0.00  0.00    +0.142 HD
ENDBRANCH   8   9
BRANCH   8  11
ATOM     11  C   PHE A   1      -1.813 -10.475 -19.578  0.00  0.00    +0.224 C 
ATOM     12  O   PHE A   1      -1.779  -9.847 -20.636  0.00  0.00    -0.287 OA
ENDBRANCH   8  11
ENDBRANCH   1   8
TORSDOF 4
REMARK  Name = ../refined-set-2016/3old/3old_pocket.pdb
REMARK  264 active torsions:
REMARK  status: ('A' for Active; 'I' for Inactive)
REMARK    1  A    between atoms: _1  and  _3
REMARK    2  A    between atoms: _3  and  _4
REMARK    3  A    between atoms: _3  and  _6
REMARK    4  A    between atoms: _6  and  _7
REMARK    5  A    between atoms: _12  and  _14
REMARK    6  A    between atoms: _14  and  _15
REMARK    7  A    between atoms: _14  and  _17
REMARK    8  A    between atoms: _17  and  _18
REMARK    9  A    between atoms: _24  and  _26
REMARK   10  A    between atoms: _26  and  _27
REMARK   11  A    between atoms: _26  and  _29
REMARK   12  A    between atoms: _29  and  _30
REMARK   13  A    between atoms: _30  and  _31
REMARK   14  A    between atoms: _37  and  _38
REMARK   15  A    between atoms: _43  and  _45
REMARK   16  A    between atoms: _45  and  _46
REMARK   17  A    between atoms: _45  and  _48
REMARK   18  A    between atoms: _48  and  _49
REMARK   19  A    between atoms: _54  and  _56
REMARK   20  A    between atoms: _56  and  _57
REMARK   21  A    between atoms: _56  and  _59
REMARK   22  A    between atoms: _62  and  _64
REMARK   23  A    between atoms: _64  and  _65
REMARK   24  A    between atoms: _64  and  _67
REMARK   25  A    between atoms: _67  and  _68
REMARK   26  A    between atoms: _72  and  _73
REMARK   27  A    between atoms: _79  and  _80
REMARK   28  A    between atoms: _85  and  _87
REMARK   29  A    between atoms: _87  and  _88
REMARK   30  A    between atoms: _87  and  _90
REMARK   31  A    between atoms: _90  and  _91
REMARK   32  A    between atoms: _101  and  _103
REMARK   33  A    between atoms: _103  and  _104
REMARK   34  A    between atoms: _103  and  _106
REMARK   35  A    between atoms: _106  and  _107
REMARK   36  A    between atoms: _117  and  _119
REMARK   37  A    between atoms: _119  and  _120
REMARK   38  A    between atoms: _119  and  _122
REMARK   39  A    between atoms: _122  and  _123
REMARK   40  A    between atoms: _123  and  _124
REMARK   41  A    between atoms: _127  and  _129
REMARK   42  A    between atoms: _129  and  _130
REMARK   43  A    between atoms: _129  and  _132
REMARK   44  A    between atoms: _132  and  _133
REMARK   45  A    between atoms: _133  and  _134
REMARK   46  A    between atoms: _134  and  _135
REMARK   47  A    between atoms: _144  and  _146
REMARK   48  A    between atoms: _146  and  _147
REMARK   49  A    between atoms: _146  and  _149
REMARK   50  A    between atoms: _149  and  _150
REMARK   51  A    between atoms: _155  and  _156
REMARK   52  A    between atoms: _158  and  _160
REMARK   53  A    between atoms: _160  and  _161
REMARK   54  A    between atoms: _160  and  _163
REMARK   55  A    between atoms: _163  and  _164
REMARK   56  A    between atoms: _164  and  _165
REMARK   57  A    between atoms: _171  and  _172
REMARK   58  A    between atoms: _177  and  _179
REMARK   59  A    between atoms: _179  and  _180
REMARK   60  A    between atoms: _179  and  _182
REMARK   61  A    between atoms: _182  and  _183
REMARK   62  A    between atoms: _186  and  _188
REMARK   63  A    between atoms: _188  and  _189
REMARK   64  A    between atoms: _192  and  _194
REMARK   65  A    between atoms: _194  and  _195
REMARK   66  A    between atoms: _194  and  _197
REMARK   67  A    between atoms: _200  and  _202
REMARK   68  A    between atoms: _202  and  _203
REMARK   69  A    between atoms: _202  and  _205
REMARK   70  A    between atoms: _205  and  _206
REMARK   71  A    between atoms: _209  and  _211
REMARK   72  A    between atoms: _211  and  _212
REMARK   73  A    between atoms: _211  and  _214
REMARK   74  A    between atoms: _214  and  _215
REMARK   75  A    between atoms: _220  and  _222
REMARK   76  A    between atoms: _222  and  _223
REMARK   77  A    between atoms: _222  and  _225
REMARK   78  A    between atoms: _225  and  _226
REMARK   79  A    between atoms: _231  and  _233
REMARK   80  A    between atoms: _233  and  _234
REMARK   81  A    between atoms: _233  and  _236
REMARK   82  A    between atoms: _236  and  _237
REMARK   83  A    between atoms: _237  and  _238
REMARK   84  A    between atoms: _240  and  _242
REMARK   85  A    between atoms: _242  and  _243
REMARK   86  A    between atoms: _242  and  _245
REMARK   87  A    between atoms: _247  and  _249
REMARK   88  A    between atoms: _249  and  _250
REMARK   89  A    between atoms: _252  and  _254
REMARK   90  A    between atoms: _254  and  _255
REMARK   91  A    between atoms: _254  and  _257
REMARK   92  A    between atoms: _257  and  _258
REMARK   93  A    between atoms: _263  and  _265
REMARK   94  A    between atoms: _265  and  _266
REMARK   95  A    between atoms: _269  and  _271
REMARK   96  A    between atoms: _271  and  _272
REMARK   97  A    between atoms: _271  and  _274
REMARK   98  A    between atoms: _277  and  _279
REMARK   99  A    between atoms: _279  and  _280
REMARK  100  A    between atoms: _279  and  _282
REMARK  101  A    between atoms: _282  and  _283
REMARK  102  A    between atoms: _286  and  _288
REMARK  103  A    between atoms: _288  and  _289
REMARK  104  A    between atoms: _288  and  _291
REMARK  105  A    between atoms: _291  and  _292
REMARK  106  A    between atoms: _295  and  _297
REMARK  107  A    between atoms: _297  and  _298
REMARK  108  A    between atoms: _297  and  _300
REMARK  109  A    between atoms: _300  and  _301
REMARK  110  A    between atoms: _306  and  _307
REMARK  111  A    between atoms: _309  and  _311
REMARK  112  A    between atoms: _311  and  _312
REMARK  113  A    between atoms: _311  and  _314
REMARK  114  A    between atoms: _317  and  _319
REMARK  115  A    between atoms: _319  and  _320
REMARK  116  A    between atoms: _319  and  _322
REMARK  117  A    between atoms: _322  and  _323
REMARK  118  A    between atoms: _323  and  _324
REMARK  119  A    between atoms: _324  and  _325
REMARK  120  A    between atoms: _334  and  _336
REMARK  121  A    between atoms: _336  and  _337
REMARK  122  A    between atoms: _336  and  _339
REMARK  123  A    between atoms: _339  and  _340
REMARK  124  A    between atoms: _343  and  _345
REMARK  125  A    between atoms: _345  and  _346
REMARK  126  A    between atoms: _345  and  _348
REMARK  127  A    between atoms: _348  and  _349
REMARK  128  A    between atoms: _352  and  _354
REMARK  129  A    between atoms: _354  and  _355
REMARK  130  A    between atoms: _357  and  _359
REMARK  131  A    between atoms: _359  and  _360
REMARK  132  A    between atoms: _359  and  _362
REMARK  133  A    between atoms: _362  and  _363
REMARK  134  A    between atoms: _366  and  _368
REMARK  135  A    between atoms: _368  and  _369
REMARK  136  A    between atoms: _368  and  _371
REMARK  137  A    between atoms: _371  and  _372
REMARK  138  A    between atoms: _375  and  _377
REMARK  139  A    between atoms: _377  and  _378
REMARK  140  A    between atoms: _377  and  _380
REMARK  141  A    between atoms: _380  and  _381
REMARK  142  A    between atoms: _381  and  _382
REMARK  143  A    between atoms: _382  and  _383
REMARK  144  A    between atoms: _392  and  _394
REMARK  145  A    between atoms: _394  and  _395
REMARK  146  A    between atoms: _394  and  _397
REMARK  147  A    between atoms: _397  and  _398
REMARK  148  A    between atoms: _401  and  _403
REMARK  149  A    between atoms: _403  and  _404
REMARK  150  A    between atoms: _403  and  _406
REMARK  151  A    between atoms: _406  and  _407
REMARK  152  A    between atoms: _410  and  _412
REMARK  153  A    between atoms: _412  and  _413
REMARK  154  A    between atoms: _416  and  _418
REMARK  155  A    between atoms: _418  and  _419
REMARK  156  A    between atoms: _418  and  _421
REMARK  157  A    between atoms: _421  and  _422
REMARK  158  A    between atoms: _424  and  _426
REMARK  159  A    between atoms: _426  and  _427
REMARK  160  A    between atoms: _426  and  _429
REMARK  161  A    between atoms: _429  and  _430
REMARK  162  A    between atoms: _430  and  _431
REMARK  163  A    between atoms: _431  and  _432
REMARK  164  A    between atoms: _432  and  _433
REMARK  165  A    between atoms: _437  and  _439
REMARK  166  A    between atoms: _439  and  _440
REMARK  167  A    between atoms: _439  and  _442
REMARK  168  A    between atoms: _442  and  _443
REMARK  169  A    between atoms: _448  and  _450
REMARK  170  A    between atoms: _450  and  _451
REMARK  171  A    between atoms: _450  and  _453
REMARK  172  A    between atoms: _453  and  _454
REMARK  173  A    between atoms: _454  and  _455
REMARK  174  A    between atoms: _457  and  _459
REMARK  175  A    between atoms: _459  and  _460
REMARK  176  A    between atoms: _459  and  _462
REMARK  177  A    between atoms: _462  and  _463
REMARK  178  A    between atoms: _463  and  _464
REMARK  179  A    between atoms: _467  and  _469
REMARK  180  A    between atoms: _469  and  _470
REMARK  181  A    between atoms: _469  and  _472
REMARK  182  A    between atoms: _475  and  _477
REMARK  183  A    between atoms: _477  and  _478
REMARK  184  A    between atoms: _477  and  _480
REMARK  185  A    between atoms: _480  and  _481
REMARK  186  A    between atoms: _484  and  _486
REMARK  187  A    between atoms: _486  and  _487
REMARK  188  A    between atoms: _486  and  _489
REMARK  189  A    between atoms: _489  and  _490
REMARK  190  A    between atoms: _493  and  _495
REMARK  191  A    between atoms: _495  and  _496
REMARK  192  A    between atoms: _495  and  _498
REMARK  193  A    between atoms: _498  and  _499
REMARK  194  A    between atoms: _502  and  _504
REMARK  195  A    between atoms: _504  and  _505
REMARK  196  A    between atoms: _507  and  _509
REMARK  197  A    between atoms: _509  and  _510
REMARK  198  A    between atoms: _512  and  _514
REMARK  199  A    between atoms: _514  and  _515
REMARK  200  A    between atoms: _514  and  _517
REMARK  201  A    between atoms: _517  and  _518
REMARK  202  A    between atoms: _518  and  _519
REMARK  203  A    between atoms: _522  and  _524
REMARK  204  A    between atoms: _524  and  _525
REMARK  205  A    between atoms: _524  and  _527
REMARK  206  A    between atoms: _527  and  _528
REMARK  207  A    between atoms: _531  and  _533
REMARK  208  A    between atoms: _533  and  _534
REMARK  209  A    between atoms: _533  and  _536
REMARK  210  A    between atoms: _536  and  _537
REMARK  211  A    between atoms: _543  and  _545
REMARK  212  A    between atoms: _545  and  _546
REMARK  213  A    between atoms: _549  and  _551
REMARK  214  A    between atoms: _551  and  _552
REMARK  215  A    between atoms: _551  and  _554
REMARK  216  A    between atoms: _554  and  _555
REMARK  217  A    between atoms: _560  and  _562
REMARK  218  A    between atoms: _562  and  _563
REMARK  219  A    between atoms: _562  and  _565
REMARK  220  A    between atoms: _565  and  _566
REMARK  221  A    between atoms: _571  and  _573
REMARK  222  A    between atoms: _573  and  _574
REMARK  223  A    between atoms: _573  and  _576
REMARK  224  A    between atoms: _576  and  _577
REMARK  225  A    between atoms: _580  and  _582
REMARK  226  A    between atoms: _582  and  _583
REMARK  227  A    between atoms: _582  and  _585
REMARK  228  A    between atoms: _585  and  _586
REMARK  229  A    between atoms: _591  and  _593
REMARK  230  A    between atoms: _593  and  _594
REMARK  231  A    between atoms: _593  and  _596
REMARK  232  A    between atoms: _596  and  _597
REMARK  233  A    between atoms: _597  and  _598
REMARK  234  A    between atoms: _598  and  _599
REMARK  235  A    between atoms: _608  and  _610
REMARK  236  A    between atoms: _610  and  _611
REMARK  237  A    between atoms: _613  and  _615
REMARK  238  A    between atoms: _615  and  _616
REMARK  239  A    between atoms: _615  and  _618
REMARK  240  A    between atoms: _618  and  _619
REMARK  241  A    between atoms: _624  and  _626
REMARK  242  A    between atoms: _626  and  _627
REMARK  243  A    between atoms: _629  and  _631
REMARK  244  A    between atoms: _631  and  _632
REMARK  245  A    between atoms: _635  and  _637
REMARK  246  A    between atoms: _637  and  _638
REMARK  247  A    between atoms: _640  and  _642
REMARK  248  A    between atoms: _642  and  _643
REMARK  249  A    between atoms: _645  and  _647
REMARK  250  A    between atoms: _647  and  _648
REMARK  251  A    between atoms: _651  and  _653
REMARK  252  A    between atoms: _653  and  _654
REMARK  253  A    between atoms: _653  and  _656
REMARK  254  A    between atoms: _656  and  _657
REMARK  255  A    between atoms: _657  and  _658
REMARK  256  A    between atoms: _658  and  _659
REMARK  257  A    between atoms: _668  and  _670
REMARK  258  A    between atoms: _670  and  _671
REMARK  259  A    between atoms: _670  and  _673
REMARK  260  A    between atoms: _673  and  _674
REMARK  261  A    between atoms: _677  and  _679
REMARK  262  A    between atoms: _679  and  _680
REMARK  263  A    between atoms: _679  and  _682
REMARK  264  A    between atoms: _682  and  _683
REMARK                            x       y       z     vdW  Elec       q    Type
REMARK                         _______ _______ _______ _____ _____    ______ ____
ROOT
ATOM      1  CA  ALA A   1      -3.107  -7.359 -23.489  0.00  0.00    +0.133 C 
ATOM      2  CB  ALA A   1      -3.391  -8.860 -23.436  0.00  0.00    +0.027 C 
ENDROOT
BRANCH   1   3
ATOM      3  N   ALA A   1      -2.455  -6.929 -22.257  0.00  0.00    -0.239 NA
ATOM      4  H   ALA A   1      -2.293  -7.620 -21.496  0.00  0.00    +0.142 HD
ENDBRANCH   1   3
BRANCH   1   5
ATOM      5  C   ALA A   1      -4.407  -6.585 -23.693  0.00  0.00    +0.224 C 
ATOM      6  O   ALA A   1      -4.646  -6.029 -24.765  0.00  0.00    -0.287 OA
ENDBRANCH   1   5
TORSDOF 2
REMARK  Name = ../refined-set-2016/3old/3old_pocket.pdb
REMARK  264 active torsions:
REMARK  status: ('A' for Active; 'I' for Inactive)
REMARK    1  A    between atoms: _1  and  _3
REMARK    2  A    between atoms: _3  and  _4
REMARK    3  A    between atoms: _3  and  _6
REMARK    4  A    between atoms: _6  and  _7
REMARK    5  A    between atoms: _12  and  _14
REMARK    6  A    between atoms: _14  and  _15
REMARK    7  A    between atoms: _14  and  _17
REMARK    8  A    between atoms: _17  and  _18
REMARK    9  A    between atoms: _24  and  _26
REMARK   10  A    between atoms: _26  and  _27
REMARK   11  A    between atoms: _26  and  _29
REMARK   12  A    between atoms: _29  and  _30
REMARK   13  A    between atoms: _30  and  _31
REMARK   14  A    between atoms: _37  and  _38
REMARK   15  A    between atoms: _43  and  _45
REMARK   16  A    between atoms: _45  and  _46
REMARK   17  A    between atoms: _45  and  _48
REMARK   18  A    between atoms: _48  and  _49
REMARK   19  A    between atoms: _54  and  _56
REMARK   20  A    between atoms: _56  and  _57
REMARK   21  A    between atoms: _56  and  _59
REMARK   22  A    between atoms: _62  and  _64
REMARK   23  A    between atoms: _64  and  _65
REMARK   24  A    between atoms: _64  and  _67
REMARK   25  A    between atoms: _67  and  _68
REMARK   26  A    between atoms: _72  and  _73
REMARK   27  A    between atoms: _79  and  _80
REMARK   28  A    between atoms: _85  and  _87
REMARK   29  A    between atoms: _87  and  _88
REMARK   30  A    between atoms: _87  and  _90
REMARK   31  A    between atoms: _90  and  _91
REMARK   32  A    between atoms: _101  and  _103
REMARK   33  A    between atoms: _103  and  _104
REMARK   34  A    between atoms: _103  and  _106
REMARK   35  A    between atoms: _106  and  _107
REMARK   36  A    between atoms: _117  and  _119
REMARK   37  A    between atoms: _119  and  _120
REMARK   38  A    between atoms: _119  and  _122
REMARK   39  A    between atoms: _122  and  _123
REMARK   40  A    between atoms: _123  and  _124
REMARK   41  A    between atoms: _127  and  _129
REMARK   42  A    between atoms: _129  and  _130
REMARK   43  A    between atoms: _129  and  _132
REMARK   44  A    between atoms: _132  and  _133
REMARK   45  A    between atoms: _133  and  _134
REMARK   46  A    between atoms: _134  and  _135
REMARK   47  A    between atoms: _144  and  _146
REMARK   48  A    between atoms: _146  and  _147
REMARK   49  A    between atoms: _146  and  _149
REMARK   50  A    between atoms: _149  and  _150
REMARK   51  A    between atoms: _155  and  _156
REMARK   52  A    between atoms: _158  and  _160
REMARK   53  A    between atoms: _160  and  _161
REMARK   54  A    between atoms: _160  and  _163
REMARK   55  A    between atoms: _163  and  _164
REMARK   56  A    between atoms: _164  and  _165
REMARK   57  A    between atoms: _171  and  _172
REMARK   58  A    between atoms: _177  and  _179
REMARK   59  A    between atoms: _179  and  _180
REMARK   60  A    between atoms: _179  and  _182
REMARK   61  A    between atoms: _182  and  _183
REMARK   62  A    between atoms: _186  and  _188
REMARK   63  A    between atoms: _188  and  _189
REMARK   64  A    between atoms: _192  and  _194
REMARK   65  A    between atoms: _194  and  _195
REMARK   66  A    between atoms: _194  and  _197
REMARK   67  A    between atoms: _200  and  _202
REMARK   68  A    between atoms: _202  and  _203
REMARK   69  A    between atoms: _202  and  _205
REMARK   70  A    between atoms: _205  and  _206
REMARK   71  A    between atoms: _209  and  _211
REMARK   72  A    between atoms: _211  and  _212
REMARK   73  A    between atoms: _211  and  _214
REMARK   74  A    between atoms: _214  and  _215
REMARK   75  A    between atoms: _220  and  _222
REMARK   76  A    between atoms: _222  and  _223
REMARK   77  A    between atoms: _222  and  _225
REMARK   78  A    between atoms: _225  and  _226
REMARK   79  A    between atoms: _231  and  _233
REMARK   80  A    between atoms: _233  and  _234
REMARK   81  A    between atoms: _233  and  _236
REMARK   82  A    between atoms: _236  and  _237
REMARK   83  A    between atoms: _237  and  _238
REMARK   84  A    between atoms: _240  and  _242
REMARK   85  A    between atoms: _242  and  _243
REMARK   86  A    between atoms: _242  and  _245
REMARK   87  A    between atoms: _247  and  _249
REMARK   88  A    between atoms: _249  and  _250
REMARK   89  A    between atoms: _252  and  _254
REMARK   90  A    between atoms: _254  and  _255
REMARK   91  A    between atoms: _254  and  _257
REMARK   92  A    between atoms: _257  and  _258
REMARK   93  A    between atoms: _263  and  _265
REMARK   94  A    between atoms: _265  and  _266
REMARK   95  A    between atoms: _269  and  _271
REMARK   96  A    between atoms: _271  and  _272
REMARK   97  A    between atoms: _271  and  _274
REMARK   98  A    between atoms: _277  and  _279
REMARK   99  A    between atoms: _279  and  _280
REMARK  100  A    between atoms: _279  and  _282
REMARK  101  A    between atoms: _282  and  _283
REMARK  102  A    between atoms: _286  and  _288
REMARK  103  A    between atoms: _288  and  _289
REMARK  104  A    between atoms: _288  and  _291
REMARK  105  A    between atoms: _291  and  _292
REMARK  106  A    between atoms: _295  and  _297
REMARK  107  A    between atoms: _297  and  _298
REMARK  108  A    between atoms: _297  and  _300
REMARK  109  A    between atoms: _300  and  _301
REMARK  110  A    between atoms: _306  and  _307
REMARK  111  A    between atoms: _309  and  _311
REMARK  112  A    between atoms: _311  and  _312
REMARK  113  A    between atoms: _311  and  _314
REMARK  114  A    between atoms: _317  and  _319
REMARK  115  A    between atoms: _319  and  _320
REMARK  116  A    between atoms: _319  and  _322
REMARK  117  A    between atoms: _322  and  _323
REMARK  118  A    between atoms: _323  and  _324
REMARK  119  A    between atoms: _324  and  _325
REMARK  120  A    between atoms: _334  and  _336
REMARK  121  A    between atoms: _336  and  _337
REMARK  122  A    between atoms: _336  and  _339
REMARK  123  A    between atoms: _339  and  _340
REMARK  124  A    between atoms: _343  and  _345
REMARK  125  A    between atoms: _345  and  _346
REMARK  126  A    between atoms: _345  and  _348
REMARK  127  A    between atoms: _348  and  _349
REMARK  128  A    between atoms: _352  and  _354
REMARK  129  A    between atoms: _354  and  _355
REMARK  130  A    between atoms: _357  and  _359
REMARK  131  A    between atoms: _359  and  _360
REMARK  132  A    between atoms: _359  and  _362
REMARK  133  A    between atoms: _362  and  _363
REMARK  134  A    between atoms: _366  and  _368
REMARK  135  A    between atoms: _368  and  _369
REMARK  136  A    between atoms: _368  and  _371
REMARK  137  A    between atoms: _371  and  _372
REMARK  138  A    between atoms: _375  and  _377
REMARK  139  A    between atoms: _377  and  _378
REMARK  140  A    between atoms: _377  and  _380
REMARK  141  A    between atoms: _380  and  _381
REMARK  142  A    between atoms: _381  and  _382
REMARK  143  A    between atoms: _382  and  _383
REMARK  144  A    between atoms: _392  and  _394
REMARK  145  A    between atoms: _394  and  _395
REMARK  146  A    between atoms: _394  and  _397
REMARK  147  A    between atoms: _397  and  _398
REMARK  148  A    between atoms: _401  and  _403
REMARK  149  A    between atoms: _403  and  _404
REMARK  150  A    between atoms: _403  and  _406
REMARK  151  A    between atoms: _406  and  _407
REMARK  152  A    between atoms: _410  and  _412
REMARK  153  A    between atoms: _412  and  _413
REMARK  154  A    between atoms: _416  and  _418
REMARK  155  A    between atoms: _418  and  _419
REMARK  156  A    between atoms: _418  and  _421
REMARK  157  A    between atoms: _421  and  _422
REMARK  158  A    between atoms: _424  and  _426
REMARK  159  A    between atoms: _426  and  _427
REMARK  160  A    between atoms: _426  and  _429
REMARK  161  A    between atoms: _429  and  _430
REMARK  162  A    between atoms: _430  and  _431
REMARK  163  A    between atoms: _431  and  _432
REMARK  164  A    between atoms: _432  and  _433
REMARK  165  A    between atoms: _437  and  _439
REMARK  166  A    between atoms: _439  and  _440
REMARK  167  A    between atoms: _439  and  _442
REMARK  168  A    between atoms: _442  and  _443
REMARK  169  A    between atoms: _448  and  _450
REMARK  170  A    between atoms: _450  and  _451
REMARK  171  A    between atoms: _450  and  _453
REMARK  172  A    between atoms: _453  and  _454
REMARK  173  A    between atoms: _454  and  _455
REMARK  174  A    between atoms: _457  and  _459
REMARK  175  A    between atoms: _459  and  _460
REMARK  176  A    between atoms: _459  and  _462
REMARK  177  A    between atoms: _462  and  _463
REMARK  178  A    between atoms: _463  and  _464
REMARK  179  A    between atoms: _467  and  _469
REMARK  180  A    between atoms: _469  and  _470
REMARK  181  A    between atoms: _469  and  _472
REMARK  182  A    between atoms: _475  and  _477
REMARK  183  A    between atoms: _477  and  _478
REMARK  184  A    between atoms: _477  and  _480
REMARK  185  A    between atoms: _480  and  _481
REMARK  186  A    between atoms: _484  and  _486
REMARK  187  A    between atoms: _486  and  _487
REMARK  188  A    between atoms: _486  and  _489
REMARK  189  A    between atoms: _489  and  _490
REMARK  190  A    between atoms: _493  and  _495
REMARK  191  A    between atoms: _495  and  _496
REMARK  192  A    between atoms: _495  and  _498
REMARK  193  A    between atoms: _498  and  _499
REMARK  194  A    between atoms: _502  and  _504
REMARK  195  A    between atoms: _504  and  _505
REMARK  196  A    between atoms: _507  and  _509
REMARK  197  A    between atoms: _509  and  _510
REMARK  198  A    between atoms: _512  and  _514
REMARK  199  A    between atoms: _514  and  _515
REMARK  200  A    between atoms: _514  and  _517
REMARK  201  A    between atoms: _517  and  _518
REMARK  202  A    between atoms: _518  and  _519
REMARK  203  A    between atoms: _522  and  _524
REMARK  204  A    between atoms: _524  and  _525
REMARK  205  A    between atoms: _524  and  _527
REMARK  206  A    between atoms: _527  and  _528
REMARK  207  A    between atoms: _531  and  _533
REMARK  208  A    between atoms: _533  and  _534
REMARK  209  A    between atoms: _533  and  _536
REMARK  210  A    between atoms: _536  and  _537
REMARK  211  A    between atoms: _543  and  _545
REMARK  212  A    between atoms: _545  and  _546
REMARK  213  A    between atoms: _549  and  _551
REMARK  214  A    between atoms: _551  and  _552
REMARK  215  A    between atoms: _551  and  _554
REMARK  216  A    between atoms: _554  and  _555
REMARK  217  A    between atoms: _560  and  _562
REMARK  218  A    between atoms: _562  and  _563
REMARK  219  A    between atoms: _562  and  _565
REMARK  220  A    between atoms: _565  and  _566
REMARK  221  A    between atoms: _571  and  _573
REMARK  222  A    between atoms: _573  and  _574
REMARK  223  A    between atoms: _573  and  _576
REMARK  224  A    between atoms: _576  and  _577
REMARK  225  A    between atoms: _580  and  _582
REMARK  226  A    between atoms: _582  and  _583
REMARK  227  A    between atoms: _582  and  _585
REMARK  228  A    between atoms: _585  and  _586
REMARK  229  A    between atoms: _591  and  _593
REMARK  230  A    between atoms: _593  and  _594
REMARK  231  A    between atoms: _593  and  _596
REMARK  232  A    between atoms: _596  and  _597
REMARK  233  A    between atoms: _597  and  _598
REMARK  234  A    between atoms: _598  and  _599
REMARK  235  A    between atoms: _608  and  _610
REMARK  236  A    between atoms: _610  and  _611
REMARK  237  A    between atoms: _613  and  _615
REMARK  238  A    between atoms: _615  and  _616
REMARK  239  A    between atoms: _615  and  _618
REMARK  240  A    between atoms: _618  and  _619
REMARK  241  A    between atoms: _624  and  _626
REMARK  242  A    between atoms: _626  and  _627
REMARK  243  A    between atoms: _629  and  _631
REMARK  244  A    between atoms: _631  and  _632
REMARK  245  A    between atoms: _635  and  _637
REMARK  246  A    between atoms: _637  and  _638
REMARK  247  A    between atoms: _640  and  _642
REMARK  248  A    between atoms: _642  and  _643
REMARK  249  A    between atoms: _645  and  _647
REMARK  250  A    between atoms: _647  and  _648
REMARK  251  A    between atoms: _651  and  _653
REMARK  252  A    between atoms: _653  and  _654
REMARK  253  A    between atoms: _653  and  _656
REMARK  254  A    between atoms: _656  and  _657
REMARK  255  A    between atoms: _657  and  _658
REMARK  256  A    between atoms: _658  and  _659
REMARK  257  A    between atoms: _668  and  _670
REMARK  258  A    between atoms: _670  and  _671
REMARK  259  A    between atoms: _670  and  _673
REMARK  260  A    between atoms: _673  and  _674
REMARK  261  A    between atoms: _677  and  _679
REMARK  262  A    between atoms: _679  and  _680
REMARK  263  A    between atoms: _679  and  _682
REMARK  264  A    between atoms: _682  and  _683
REMARK                            x       y       z     vdW  Elec       q    Type
REMARK                         _______ _______ _______ _____ _____    ______ ____
ROOT
ATOM      1  C   HIS A   2      10.473  -8.455 -23.677  0.00  0.00    +0.241 C 
ATOM      2  N   ASP A   3       9.557  -9.390 -23.444  0.00  0.00    -0.297 N 
ATOM      3  H   ASP A   3       9.129  -9.466 -22.499  0.00  0.00    +0.150 HD
ATOM      4  O   HIS A   2      11.028  -8.322 -24.772  0.00  0.00    -0.273 OA
ENDROOT
BRANCH   2   5
ATOM      5  CA  ASP A   3       9.145 -10.310 -24.497  0.00  0.00    +0.160 C 
BRANCH   5   6
ATOM      6  C   ASP A   3       8.140  -9.717 -25.480  0.00  0.00    +0.241 C 
ATOM      7  N   ASN A   4       6.958  -9.346 -24.995  0.00  0.00    -0.298 N 
ATOM      8  H   ASN A   4       6.764  -9.414 -23.975  0.00  0.00    +0.150 HD
ATOM      9  O   ASP A   3       8.432  -9.592 -26.667  0.00  0.00    -0.273 OA
BRANCH   7  10
ATOM     10  CA  ASN A   4       5.937  -8.843 -25.906  0.00  0.00    +0.146 C 
BRANCH  10  11
ATOM     11  C   ASN A   4       6.121  -7.452 -26.489  0.00  0.00    +0.227 C 
ATOM     12  O   ASN A   4       5.359  -7.055 -27.367  0.00  0.00    -0.286 OA
ENDBRANCH  10  11
BRANCH  10  13
ATOM     13  CB  ASN A   4       4.530  -8.971 -25.289  0.00  0.00    +0.112 C 
BRANCH  13  14
ATOM     14  CG  ASN A   4       4.367  -8.184 -24.004  0.00  0.00    +0.222 C 
ATOM     15  ND2 ASN A   4       3.482  -8.658 -23.133  0.00  0.00    -0.329 N 
ATOM     16 HD21 ASN A   4       3.307  -8.152 -22.241  0.00  0.00    +0.145 HD
ATOM     17 HD22 ASN A   4       2.964  -9.535 -23.343  0.00  0.00    +0.145 HD
ATOM     18  OD1 ASN A   4       5.006  -7.152 -23.805  0.00  0.00    -0.275 OA
ENDBRANCH  13  14
ENDBRANCH  10  13
ENDBRANCH   7  10
ENDBRANCH   5   6
BRANCH   5  19
ATOM     19  CB  ASP A   3       8.525 -11.586 -23.917  0.00  0.00    +0.143 C 
BRANCH  19  20
ATOM     20  CG  ASP A   3       9.559 -12.584 -23.435  0.00  0.00    +0.367 C 
ATOM     21  OD2 ASP A   3       9.205 -13.420 -22.580  0.00  0.00    -0.246 OA
ATOM     22  OD1 ASP A   3      10.709 -12.554 -23.917  0.00  0.00    -0.246 OA
ENDBRANCH  19  20
ENDBRANCH   5  19
ENDBRANCH   2   5
BRANCH   1  23
ATOM     23  CA  HIS A   2      10.822  -7.528 -22.518  0.00  0.00    +0.155 C 
BRANCH  23  25
ATOM     24  C   ASN A   1       8.568  -6.872 -21.927  0.00  0.00    +0.239 C 
ATOM     25  N   HIS A   2       9.750  -7.348 -21.543  0.00  0.00    -0.297 N 
ATOM     26  H   HIS A   2       9.911  -7.593 -20.545  0.00  0.00    +0.150 HD
ATOM     27  O   ASN A   1       8.323  -6.591 -23.099  0.00  0.00    -0.274 OA
BRANCH  24  28
ATOM     28  CA  ASN A   1       7.501  -6.650 -20.857  0.00  0.00    +0.154 C 
BRANCH  28  29
ATOM     29  N   ASN A   1       6.335  -6.077 -21.523  0.00  0.00    -0.238 NA
ATOM     30  H   ASN A   1       5.985  -6.503 -22.405  0.00  0.00    +0.142 HD
ENDBRANCH  28  29
BRANCH  28  31
ATOM     31  CB  ASN A   1       7.134  -7.943 -20.092  0.00  0.00    +0.111 C 
BRANCH  31  32
ATOM     32  CG  ASN A   1       7.060  -9.178 -20.979  0.00  0.00    +0.221 C 
ATOM     33  ND2 ASN A   1       7.174 -10.355 -20.358  0.00  0.00    -0.329 N 
ATOM     34 HD21 ASN A   1       7.324 -10.388 -19.329  0.00  0.00    +0.145 HD
ATOM     35 HD22 ASN A   1       7.113 -11.239 -20.903  0.00  0.00    +0.145 HD
ATOM     36  OD1 ASN A   1       6.883  -9.086 -22.187  0.00  0.00    -0.275 OA
ENDBRANCH  31  32
ENDBRANCH  28  31
ENDBRANCH  24  28
ENDBRANCH  23  25
BRANCH  23  37
ATOM     37  CB  HIS A   2      12.111  -8.006 -21.835  0.00  0.00    +0.076 C 
BRANCH  37  38
ATOM     38  CG  HIS A   2      12.067  -9.428 -21.372  0.00  0.00    +0.082 A 
ATOM     39  ND1 HIS A   2      11.474  -9.811 -20.188  0.00  0.00    -0.227 NA
ATOM     40  CE1 HIS A   2      11.580 -11.120 -20.050  0.00  0.00    +0.199 A 
ATOM     41  NE2 HIS A   2      12.220 -11.600 -21.101  0.00  0.00    -0.221 NA
ATOM     42  CD2 HIS A   2      12.536 -10.563 -21.942  0.00  0.00    +0.115 A 
ENDBRANCH  37  38
ENDBRANCH  23  37
ENDBRANCH   1  23
TORSDOF 16
REMARK  Name = ../refined-set-2016/3old/3old_pocket.pdb
REMARK  264 active torsions:
REMARK  status: ('A' for Active; 'I' for Inactive)
REMARK    1  A    between atoms: _1  and  _3
REMARK    2  A    between atoms: _3  and  _4
REMARK    3  A    between atoms: _3  and  _6
REMARK    4  A    between atoms: _6  and  _7
REMARK    5  A    between atoms: _12  and  _14
REMARK    6  A    between atoms: _14  and  _15
REMARK    7  A    between atoms: _14  and  _17
REMARK    8  A    between atoms: _17  and  _18
REMARK    9  A    between atoms: _24  and  _26
REMARK   10  A    between atoms: _26  and  _27
REMARK   11  A    between atoms: _26  and  _29
REMARK   12  A    between atoms: _29  and  _30
REMARK   13  A    between atoms: _30  and  _31
REMARK   14  A    between atoms: _37  and  _38
REMARK   15  A    between atoms: _43  and  _45
REMARK   16  A    between atoms: _45  and  _46
REMARK   17  A    between atoms: _45  and  _48
REMARK   18  A    between atoms: _48  and  _49
REMARK   19  A    between atoms: _54  and  _56
REMARK   20  A    between atoms: _56  and  _57
REMARK   21  A    between atoms: _56  and  _59
REMARK   22  A    between atoms: _62  and  _64
REMARK   23  A    between atoms: _64  and  _65
REMARK   24  A    between atoms: _64  and  _67
REMARK   25  A    between atoms: _67  and  _68
REMARK   26  A    between atoms: _72  and  _73
REMARK   27  A    between atoms: _79  and  _80
REMARK   28  A    between atoms: _85  and  _87
REMARK   29  A    between atoms: _87  and  _88
REMARK   30  A    between atoms: _87  and  _90
REMARK   31  A    between atoms: _90  and  _91
REMARK   32  A    between atoms: _101  and  _103
REMARK   33  A    between atoms: _103  and  _104
REMARK   34  A    between atoms: _103  and  _106
REMARK   35  A    between atoms: _106  and  _107
REMARK   36  A    between atoms: _117  and  _119
REMARK   37  A    between atoms: _119  and  _120
REMARK   38  A    between atoms: _119  and  _122
REMARK   39  A    between atoms: _122  and  _123
REMARK   40  A    between atoms: _123  and  _124
REMARK   41  A    between atoms: _127  and  _129
REMARK   42  A    between atoms: _129  and  _130
REMARK   43  A    between atoms: _129  and  _132
REMARK   44  A    between atoms: _132  and  _133
REMARK   45  A    between atoms: _133  and  _134
REMARK   46  A    between atoms: _134  and  _135
REMARK   47  A    between atoms: _144  and  _146
REMARK   48  A    between atoms: _146  and  _147
REMARK   49  A    between atoms: _146  and  _149
REMARK   50  A    between atoms: _149  and  _150
REMARK   51  A    between atoms: _155  and  _156
REMARK   52  A    between atoms: _158  and  _160
REMARK   53  A    between atoms: _160  and  _161
REMARK   54  A    between atoms: _160  and  _163
REMARK   55  A    between atoms: _163  and  _164
REMARK   56  A    between atoms: _164  and  _165
REMARK   57  A    between atoms: _171  and  _172
REMARK   58  A    between atoms: _177  and  _179
REMARK   59  A    between atoms: _179  and  _180
REMARK   60  A    between atoms: _179  and  _182
REMARK   61  A    between atoms: _182  and  _183
REMARK   62  A    between atoms: _186  and  _188
REMARK   63  A    between atoms: _188  and  _189
REMARK   64  A    between atoms: _192  and  _194
REMARK   65  A    between atoms: _194  and  _195
REMARK   66  A    between atoms: _194  and  _197
REMARK   67  A    between atoms: _200  and  _202
REMARK   68  A    between atoms: _202  and  _203
REMARK   69  A    between atoms: _202  and  _205
REMARK   70  A    between atoms: _205  and  _206
REMARK   71  A    between atoms: _209  and  _211
REMARK   72  A    between atoms: _211  and  _212
REMARK   73  A    between atoms: _211  and  _214
REMARK   74  A    between atoms: _214  and  _215
REMARK   75  A    between atoms: _220  and  _222
REMARK   76  A    between atoms: _222  and  _223
REMARK   77  A    between atoms: _222  and  _225
REMARK   78  A    between atoms: _225  and  _226
REMARK   79  A    between atoms: _231  and  _233
REMARK   80  A    between atoms: _233  and  _234
REMARK   81  A    between atoms: _233  and  _236
REMARK   82  A    between atoms: _236  and  _237
REMARK   83  A    between atoms: _237  and  _238
REMARK   84  A    between atoms: _240  and  _242
REMARK   85  A    between atoms: _242  and  _243
REMARK   86  A    between atoms: _242  and  _245
REMARK   87  A    between atoms: _247  and  _249
REMARK   88  A    between atoms: _249  and  _250
REMARK   89  A    between atoms: _252  and  _254
REMARK   90  A    between atoms: _254  and  _255
REMARK   91  A    between atoms: _254  and  _257
REMARK   92  A    between atoms: _257  and  _258
REMARK   93  A    between atoms: _263  and  _265
REMARK   94  A    between atoms: _265  and  _266
REMARK   95  A    between atoms: _269  and  _271
REMARK   96  A    between atoms: _271  and  _272
REMARK   97  A    between atoms: _271  and  _274
REMARK   98  A    between atoms: _277  and  _279
REMARK   99  A    between atoms: _279  and  _280
REMARK  100  A    between atoms: _279  and  _282
REMARK  101  A    between atoms: _282  and  _283
REMARK  102  A    between atoms: _286  and  _288
REMARK  103  A    between atoms: _288  and  _289
REMARK  104  A    between atoms: _288  and  _291
REMARK  105  A    between atoms: _291  and  _292
REMARK  106  A    between atoms: _295  and  _297
REMARK  107  A    between atoms: _297  and  _298
REMARK  108  A    between atoms: _297  and  _300
REMARK  109  A    between atoms: _300  and  _301
REMARK  110  A    between atoms: _306  and  _307
REMARK  111  A    between atoms: _309  and  _311
REMARK  112  A    between atoms: _311  and  _312
REMARK  113  A    between atoms: _311  and  _314
REMARK  114  A    between atoms: _317  and  _319
REMARK  115  A    between atoms: _319  and  _320
REMARK  116  A    between atoms: _319  and  _322
REMARK  117  A    between atoms: _322  and  _323
REMARK  118  A    between atoms: _323  and  _324
REMARK  119  A    between atoms: _324  and  _325
REMARK  120  A    between atoms: _334  and  _336
REMARK  121  A    between atoms: _336  and  _337
REMARK  122  A    between atoms: _336  and  _339
REMARK  123  A    between atoms: _339  and  _340
REMARK  124  A    between atoms: _343  and  _345
REMARK  125  A    between atoms: _345  and  _346
REMARK  126  A    between atoms: _345  and  _348
REMARK  127  A    between atoms: _348  and  _349
REMARK  128  A    between atoms: _352  and  _354
REMARK  129  A    between atoms: _354  and  _355
REMARK  130  A    between atoms: _357  and  _359
REMARK  131  A    between atoms: _359  and  _360
REMARK  132  A    between atoms: _359  and  _362
REMARK  133  A    between atoms: _362  and  _363
REMARK  134  A    between atoms: _366  and  _368
REMARK  135  A    between atoms: _368  and  _369
REMARK  136  A    between atoms: _368  and  _371
REMARK  137  A    between atoms: _371  and  _372
REMARK  138  A    between atoms: _375  and  _377
REMARK  139  A    between atoms: _377  and  _378
REMARK  140  A    between atoms: _377  and  _380
REMARK  141  A    between atoms: _380  and  _381
REMARK  142  A    between atoms: _381  and  _382
REMARK  143  A    between atoms: _382  and  _383
REMARK  144  A    between atoms: _392  and  _394
REMARK  145  A    between atoms: _394  and  _395
REMARK  146  A    between atoms: _394  and  _397
REMARK  147  A    between atoms: _397  and  _398
REMARK  148  A    between atoms: _401  and  _403
REMARK  149  A    between atoms: _403  and  _404
REMARK  150  A    between atoms: _403  and  _406
REMARK  151  A    between atoms: _406  and  _407
REMARK  152  A    between atoms: _410  and  _412
REMARK  153  A    between atoms: _412  and  _413
REMARK  154  A    between atoms: _416  and  _418
REMARK  155  A    between atoms: _418  and  _419
REMARK  156  A    between atoms: _418  and  _421
REMARK  157  A    between atoms: _421  and  _422
REMARK  158  A    between atoms: _424  and  _426
REMARK  159  A    between atoms: _426  and  _427
REMARK  160  A    between atoms: _426  and  _429
REMARK  161  A    between atoms: _429  and  _430
REMARK  162  A    between atoms: _430  and  _431
REMARK  163  A    between atoms: _431  and  _432
REMARK  164  A    between atoms: _432  and  _433
REMARK  165  A    between atoms: _437  and  _439
REMARK  166  A    between atoms: _439  and  _440
REMARK  167  A    between atoms: _439  and  _442
REMARK  168  A    between atoms: _442  and  _443
REMARK  169  A    between atoms: _448  and  _450
REMARK  170  A    between atoms: _450  and  _451
REMARK  171  A    between atoms: _450  and  _453
REMARK  172  A    between atoms: _453  and  _454
REMARK  173  A    between atoms: _454  and  _455
REMARK  174  A    between atoms: _457  and  _459
REMARK  175  A    between atoms: _459  and  _460
REMARK  176  A    between atoms: _459  and  _462
REMARK  177  A    between atoms: _462  and  _463
REMARK  178  A    between atoms: _463  and  _464
REMARK  179  A    between atoms: _467  and  _469
REMARK  180  A    between atoms: _469  and  _470
REMARK  181  A    between atoms: _469  and  _472
REMARK  182  A    between atoms: _475  and  _477
REMARK  183  A    between atoms: _477  and  _478
REMARK  184  A    between atoms: _477  and  _480
REMARK  185  A    between atoms: _480  and  _481
REMARK  186  A    between atoms: _484  and  _486
REMARK  187  A    between atoms: _486  and  _487
REMARK  188  A    between atoms: _486  and  _489
REMARK  189  A    between atoms: _489  and  _490
REMARK  190  A    between atoms: _493  and  _495
REMARK  191  A    between atoms: _495  and  _496
REMARK  192  A    between atoms: _495  and  _498
REMARK  193  A    between atoms: _498  and  _499
REMARK  194  A    between atoms: _502  and  _504
REMARK  195  A    between atoms: _504  and  _505
REMARK  196  A    between atoms: _507  and  _509
REMARK  197  A    between atoms: _509  and  _510
REMARK  198  A    between atoms: _512  and  _514
REMARK  199  A    between atoms: _514  and  _515
REMARK  200  A    between atoms: _514  and  _517
REMARK  201  A    between atoms: _517  and  _518
REMARK  202  A    between atoms: _518  and  _519
REMARK  203  A    between atoms: _522  and  _524
REMARK  204  A    between atoms: _524  and  _525
REMARK  205  A    between atoms: _524  and  _527
REMARK  206  A    between atoms: _527  and  _528
REMARK  207  A    between atoms: _531  and  _533
REMARK  208  A    between atoms: _533  and  _534
REMARK  209  A    between atoms: _533  and  _536
REMARK  210  A    between atoms: _536  and  _537
REMARK  211  A    between atoms: _543  and  _545
REMARK  212  A    between atoms: _545  and  _546
REMARK  213  A    between atoms: _549  and  _551
REMARK  214  A    between atoms: _551  and  _552
REMARK  215  A    between atoms: _551  and  _554
REMARK  216  A    between atoms: _554  and  _555
REMARK  217  A    between atoms: _560  and  _562
REMARK  218  A    between atoms: _562  and  _563
REMARK  219  A    between atoms: _562  and  _565
REMARK  220  A    between atoms: _565  and  _566
REMARK  221  A    between atoms: _571  and  _573
REMARK  222  A    between atoms: _573  and  _574
REMARK  223  A    between atoms: _573  and  _576
REMARK  224  A    between atoms: _576  and  _577
REMARK  225  A    between atoms: _580  and  _582
REMARK  226  A    between atoms: _582  and  _583
REMARK  227  A    between atoms: _582  and  _585
REMARK  228  A    between atoms: _585  and  _586
REMARK  229  A    between atoms: _591  and  _593
REMARK  230  A    between atoms: _593  and  _594
REMARK  231  A    between atoms: _593  and  _596
REMARK  232  A    between atoms: _596  and  _597
REMARK  233  A    between atoms: _597  and  _598
REMARK  234  A    between atoms: _598  and  _599
REMARK  235  A    between atoms: _608  and  _610
REMARK  236  A    between atoms: _610  and  _611
REMARK  237  A    between atoms: _613  and  _615
REMARK  238  A    between atoms: _615  and  _616
REMARK  239  A    between atoms: _615  and  _618
REMARK  240  A    between atoms: _618  and  _619
REMARK  241  A    between atoms: _624  and  _626
REMARK  242  A    between atoms: _626  and  _627
REMARK  243  A    between atoms: _629  and  _631
REMARK  244  A    between atoms: _631  and  _632
REMARK  245  A    between atoms: _635  and  _637
REMARK  246  A    between atoms: _637  and  _638
REMARK  247  A    between atoms: _640  and  _642
REMARK  248  A    between atoms: _642  and  _643
REMARK  249  A    between atoms: _645  and  _647
REMARK  250  A    between atoms: _647  and  _648
REMARK  251  A    between atoms: _651  and  _653
REMARK  252  A    between atoms: _653  and  _654
REMARK  253  A    between atoms: _653  and  _656
REMARK  254  A    between atoms: _656  and  _657
REMARK  255  A    between atoms: _657  and  _658
REMARK  256  A    between atoms: _658  and  _659
REMARK  257  A    between atoms: _668  and  _670
REMARK  258  A    between atoms: _670  and  _671
REMARK  259  A    between atoms: _670  and  _673
REMARK  260  A    between atoms: _673  and  _674
REMARK  261  A    between atoms: _677  and  _679
REMARK  262  A    between atoms: _679  and  _680
REMARK  263  A    between atoms: _679  and  _682
REMARK  264  A    between atoms: _682  and  _683
REMARK                            x       y       z     vdW  Elec       q    Type
REMARK                         _______ _______ _______ _____ _____    ______ ____
ROOT
ATOM      1  CA  HIS A   3       7.932 -12.625 -28.262  0.00  0.00    +0.155 C 
ENDROOT
BRANCH   1   3
ATOM      2  C   GLY A   2       6.906 -11.228 -29.959  0.00  0.00    +0.243 C 
ATOM      3  N   HIS A   3       7.645 -11.318 -28.859  0.00  0.00    -0.297 N 
ATOM      4  H   HIS A   3       8.023 -10.455 -28.418  0.00  0.00    +0.150 HD
ATOM      5  O   GLY A   2       6.469 -12.219 -30.540  0.00  0.00    -0.273 OA
BRANCH   2   6
ATOM      6  CA  GLY A   2       6.617  -9.842 -30.509  0.00  0.00    +0.176 C 
BRANCH   6   8
ATOM      7  C   ARG A   1       8.529  -8.414 -30.140  0.00  0.00    +0.238 C 
ATOM      8  N   GLY A   2       7.260  -8.706 -29.869  0.00  0.00    -0.296 N 
ATOM      9  H   GLY A   2       6.726  -8.119 -29.197  0.00  0.00    +0.150 HD
ATOM     10  O   ARG A   1       9.216  -9.097 -30.898  0.00  0.00    -0.274 OA
BRANCH   7  11
ATOM     11  CA  ARG A   1       9.120  -7.177 -29.456  0.00  0.00    +0.145 C 
BRANCH  11  12
ATOM     12  N   ARG A   1       8.460  -6.817 -28.207  0.00  0.00    -0.238 NA
ATOM     13  H   ARG A   1       8.362  -7.540 -27.466  0.00  0.00    +0.142 HD
ENDBRANCH  11  12
BRANCH  11  14
ATOM     14  CB  ARG A   1      10.620  -7.390 -29.222  0.00  0.00    +0.030 C 
BRANCH  14  15
ATOM     15  CG  ARG A   1      10.953  -8.244 -28.002  0.00  0.00    +0.045 C 
BRANCH  15  16
ATOM     16  CD  ARG A   1      12.431  -8.612 -27.973  0.00  0.00    +0.174 C 
BRANCH  16  17
ATOM     17  NE  ARG A   1      13.293  -7.444 -28.150  0.00  0.00    -0.265 N 
ATOM     18  CZ  ARG A   1      13.404  -6.447 -27.275  0.00  0.00    +0.342 C 
ATOM     19  NH2 ARG A   1      12.709  -6.461 -26.142  0.00  0.00    -0.292 N 
ATOM     20 HH21 ARG A   1      12.803  -5.677 -25.465  0.00  0.00    +0.255 HD
ATOM     21 HH22 ARG A   1      12.072  -7.256 -25.933  0.00  0.00    +0.255 HD
ATOM     22  NH1 ARG A   1      14.211  -5.429 -27.538  0.00  0.00    -0.292 N 
ATOM     23 HH11 ARG A   1      14.301  -4.648 -26.858  0.00  0.00    +0.255 HD
ATOM     24 HH12 ARG A   1      14.754  -5.412 -28.425  0.00  0.00    +0.255 HD
ATOM     25  HE  ARG A   1      13.859  -7.388 -29.021  0.00  0.00    +0.259 HD
ENDBRANCH  16  17
ENDBRANCH  15  16
ENDBRANCH  14  15
ENDBRANCH  11  14
ENDBRANCH   7  11
ENDBRANCH   6   8
ENDBRANCH   2   6
ENDBRANCH   1   3
BRANCH   1  26
ATOM     26  C   HIS A   3       6.884 -12.921 -27.192  0.00  0.00    +0.241 C 
ATOM     27  O   HIS A   3       6.179 -12.020 -26.745  0.00  0.00    -0.273 OA
ATOM     28  N   GLY A   4       6.780 -14.183 -26.789  0.00  0.00    -0.295 N 
ATOM     29  H   GLY A   4       7.395 -14.910 -27.207  0.00  0.00    +0.150 HD
BRANCH  28  30
ATOM     30  CA  GLY A   4       5.814 -14.556 -25.768  0.00  0.00    +0.176 C 
BRANCH  30  31
ATOM     31  C   GLY A   4       4.365 -14.400 -26.192  0.00  0.00    +0.243 C 
ATOM     32  N   ALA A   5       3.599 -13.637 -25.417  0.00  0.00    -0.297 N 
ATOM     33  H   ALA A   5       4.018 -13.186 -24.579  0.00  0.00    +0.150 HD
ATOM     34  O   GLY A   4       3.944 -14.954 -27.207  0.00  0.00    -0.273 OA
BRANCH  32  35
ATOM     35  CA  ALA A   5       2.186 -13.416 -25.712  0.00  0.00    +0.149 C 
ATOM     36  CB  ALA A   5       1.334 -14.474 -25.012  0.00  0.00    +0.031 C 
BRANCH  35  37
ATOM     37  C   ALA A   5       1.708 -12.019 -25.313  0.00  0.00    +0.241 C 
ATOM     38  O   ALA A   5       2.379 -11.300 -24.571  0.00  0.00    -0.273 OA
ATOM     39  N   GLY A   6       0.530 -11.653 -25.810  0.00  0.00    -0.295 N 
ATOM     40  H   GLY A   6       0.004 -12.316 -26.414  0.00  0.00    +0.150 HD
BRANCH  39  41
ATOM     41  CA  GLY A   6      -0.037 -10.347 -25.527  0.00  0.00    +0.176 C 
BRANCH  41  42
ATOM     42  C   GLY A   6      -0.647  -9.808 -26.806  0.00  0.00    +0.243 C 
ATOM     43  O   GLY A   6      -1.593  -9.019 -26.778  0.00  0.00    -0.273 OA
ATOM     44  N   GLY A   7      -0.081 -10.231 -27.934  0.00  0.00    -0.295 N 
ATOM     45  H   GLY A   7       0.740 -10.868 -27.885  0.00  0.00    +0.150 HD
BRANCH  44  46
ATOM     46  CA  GLY A   7      -0.587  -9.821 -29.230  0.00  0.00    +0.176 C 
BRANCH  46  47
ATOM     47  C   GLY A   7      -0.052  -8.533 -29.824  0.00  0.00    +0.243 C 
ATOM     48  O   GLY A   7       0.819  -7.868 -29.260  0.00  0.00    -0.273 OA
ATOM     49  N   ALA A   8      -0.595  -8.192 -30.988  0.00  0.00    -0.298 N 
ATOM     50  H   ALA A   8      -1.319  -8.814 -31.401  0.00  0.00    +0.150 HD
BRANCH  49  51
ATOM     51  CA  ALA A   8      -0.220  -6.986 -31.710  0.00  0.00    +0.137 C 
ATOM     52  CB  ALA A   8      -0.769  -7.050 -33.141  0.00  0.00    +0.030 C 
BRANCH  51  53
ATOM     53  C   ALA A   8      -0.766  -5.752 -30.996  0.00  0.00    +0.227 C 
ATOM     54  O   ALA A   8      -0.404  -4.629 -31.328  0.00  0.00    -0.286 OA
ENDBRANCH  51  53
ENDBRANCH  49  51
ENDBRANCH  46  47
ENDBRANCH  44  46
ENDBRANCH  41  42
ENDBRANCH  39  41
ENDBRANCH  35  37
ENDBRANCH  32  35
ENDBRANCH  30  31
ENDBRANCH  28  30
ENDBRANCH   1  26
BRANCH   1  55
ATOM     55  CB  HIS A   3       9.328 -12.639 -27.628  0.00  0.00    +0.076 C 
BRANCH  55  56
ATOM     56  CG  HIS A   3      10.438 -12.884 -28.602  0.00  0.00    +0.082 A 
ATOM     57  ND1 HIS A   3      11.173 -14.049 -28.612  0.00  0.00    -0.227 NA
ATOM     58  CE1 HIS A   3      12.087 -13.983 -29.564  0.00  0.00    +0.199 A 
ATOM     59  NE2 HIS A   3      11.971 -12.817 -30.172  0.00  0.00    -0.221 NA
ATOM     60  CD2 HIS A   3      10.946 -12.111 -29.591  0.00  0.00    +0.115 A 
ENDBRANCH  55  56
ENDBRANCH   1  55
TORSDOF 22
REMARK  Name = ../refined-set-2016/3old/3old_pocket.pdb
REMARK  264 active torsions:
REMARK  status: ('A' for Active; 'I' for Inactive)
REMARK    1  A    between atoms: _1  and  _3
REMARK    2  A    between atoms: _3  and  _4
REMARK    3  A    between atoms: _3  and  _6
REMARK    4  A    between atoms: _6  and  _7
REMARK    5  A    between atoms: _12  and  _14
REMARK    6  A    between atoms: _14  and  _15
REMARK    7  A    between atoms: _14  and  _17
REMARK    8  A    between atoms: _17  and  _18
REMARK    9  A    between atoms: _24  and  _26
REMARK   10  A    between atoms: _26  and  _27
REMARK   11  A    between atoms: _26  and  _29
REMARK   12  A    between atoms: _29  and  _30
REMARK   13  A    between atoms: _30  and  _31
REMARK   14  A    between atoms: _37  and  _38
REMARK   15  A    between atoms: _43  and  _45
REMARK   16  A    between atoms: _45  and  _46
REMARK   17  A    between atoms: _45  and  _48
REMARK   18  A    between atoms: _48  and  _49
REMARK   19  A    between atoms: _54  and  _56
REMARK   20  A    between atoms: _56  and  _57
REMARK   21  A    between atoms: _56  and  _59
REMARK   22  A    between atoms: _62  and  _64
REMARK   23  A    between atoms: _64  and  _65
REMARK   24  A    between atoms: _64  and  _67
REMARK   25  A    between atoms: _67  and  _68
REMARK   26  A    between atoms: _72  and  _73
REMARK   27  A    between atoms: _79  and  _80
REMARK   28  A    between atoms: _85  and  _87
REMARK   29  A    between atoms: _87  and  _88
REMARK   30  A    between atoms: _87  and  _90
REMARK   31  A    between atoms: _90  and  _91
REMARK   32  A    between atoms: _101  and  _103
REMARK   33  A    between atoms: _103  and  _104
REMARK   34  A    between atoms: _103  and  _106
REMARK   35  A    between atoms: _106  and  _107
REMARK   36  A    between atoms: _117  and  _119
REMARK   37  A    between atoms: _119  and  _120
REMARK   38  A    between atoms: _119  and  _122
REMARK   39  A    between atoms: _122  and  _123
REMARK   40  A    between atoms: _123  and  _124
REMARK   41  A    between atoms: _127  and  _129
REMARK   42  A    between atoms: _129  and  _130
REMARK   43  A    between atoms: _129  and  _132
REMARK   44  A    between atoms: _132  and  _133
REMARK   45  A    between atoms: _133  and  _134
REMARK   46  A    between atoms: _134  and  _135
REMARK   47  A    between atoms: _144  and  _146
REMARK   48  A    between atoms: _146  and  _147
REMARK   49  A    between atoms: _146  and  _149
REMARK   50  A    between atoms: _149  and  _150
REMARK   51  A    between atoms: _155  and  _156
REMARK   52  A    between atoms: _158  and  _160
REMARK   53  A    between atoms: _160  and  _161
REMARK   54  A    between atoms: _160  and  _163
REMARK   55  A    between atoms: _163  and  _164
REMARK   56  A    between atoms: _164  and  _165
REMARK   57  A    between atoms: _171  and  _172
REMARK   58  A    between atoms: _177  and  _179
REMARK   59  A    between atoms: _179  and  _180
REMARK   60  A    between atoms: _179  and  _182
REMARK   61  A    between atoms: _182  and  _183
REMARK   62  A    between atoms: _186  and  _188
REMARK   63  A    between atoms: _188  and  _189
REMARK   64  A    between atoms: _192  and  _194
REMARK   65  A    between atoms: _194  and  _195
REMARK   66  A    between atoms: _194  and  _197
REMARK   67  A    between atoms: _200  and  _202
REMARK   68  A    between atoms: _202  and  _203
REMARK   69  A    between atoms: _202  and  _205
REMARK   70  A    between atoms: _205  and  _206
REMARK   71  A    between atoms: _209  and  _211
REMARK   72  A    between atoms: _211  and  _212
REMARK   73  A    between atoms: _211  and  _214
REMARK   74  A    between atoms: _214  and  _215
REMARK   75  A    between atoms: _220  and  _222
REMARK   76  A    between atoms: _222  and  _223
REMARK   77  A    between atoms: _222  and  _225
REMARK   78  A    between atoms: _225  and  _226
REMARK   79  A    between atoms: _231  and  _233
REMARK   80  A    between atoms: _233  and  _234
REMARK   81  A    between atoms: _233  and  _236
REMARK   82  A    between atoms: _236  and  _237
REMARK   83  A    between atoms: _237  and  _238
REMARK   84  A    between atoms: _240  and  _242
REMARK   85  A    between atoms: _242  and  _243
REMARK   86  A    between atoms: _242  and  _245
REMARK   87  A    between atoms: _247  and  _249
REMARK   88  A    between atoms: _249  and  _250
REMARK   89  A    between atoms: _252  and  _254
REMARK   90  A    between atoms: _254  and  _255
REMARK   91  A    between atoms: _254  and  _257
REMARK   92  A    between atoms: _257  and  _258
REMARK   93  A    between atoms: _263  and  _265
REMARK   94  A    between atoms: _265  and  _266
REMARK   95  A    between atoms: _269  and  _271
REMARK   96  A    between atoms: _271  and  _272
REMARK   97  A    between atoms: _271  and  _274
REMARK   98  A    between atoms: _277  and  _279
REMARK   99  A    between atoms: _279  and  _280
REMARK  100  A    between atoms: _279  and  _282
REMARK  101  A    between atoms: _282  and  _283
REMARK  102  A    between atoms: _286  and  _288
REMARK  103  A    between atoms: _288  and  _289
REMARK  104  A    between atoms: _288  and  _291
REMARK  105  A    between atoms: _291  and  _292
REMARK  106  A    between atoms: _295  and  _297
REMARK  107  A    between atoms: _297  and  _298
REMARK  108  A    between atoms: _297  and  _300
REMARK  109  A    between atoms: _300  and  _301
REMARK  110  A    between atoms: _306  and  _307
REMARK  111  A    between atoms: _309  and  _311
REMARK  112  A    between atoms: _311  and  _312
REMARK  113  A    between atoms: _311  and  _314
REMARK  114  A    between atoms: _317  and  _319
REMARK  115  A    between atoms: _319  and  _320
REMARK  116  A    between atoms: _319  and  _322
REMARK  117  A    between atoms: _322  and  _323
REMARK  118  A    between atoms: _323  and  _324
REMARK  119  A    between atoms: _324  and  _325
REMARK  120  A    between atoms: _334  and  _336
REMARK  121  A    between atoms: _336  and  _337
REMARK  122  A    between atoms: _336  and  _339
REMARK  123  A    between atoms: _339  and  _340
REMARK  124  A    between atoms: _343  and  _345
REMARK  125  A    between atoms: _345  and  _346
REMARK  126  A    between atoms: _345  and  _348
REMARK  127  A    between atoms: _348  and  _349
REMARK  128  A    between atoms: _352  and  _354
REMARK  129  A    between atoms: _354  and  _355
REMARK  130  A    between atoms: _357  and  _359
REMARK  131  A    between atoms: _359  and  _360
REMARK  132  A    between atoms: _359  and  _362
REMARK  133  A    between atoms: _362  and  _363
REMARK  134  A    between atoms: _366  and  _368
REMARK  135  A    between atoms: _368  and  _369
REMARK  136  A    between atoms: _368  and  _371
REMARK  137  A    between atoms: _371  and  _372
REMARK  138  A    between atoms: _375  and  _377
REMARK  139  A    between atoms: _377  and  _378
REMARK  140  A    between atoms: _377  and  _380
REMARK  141  A    between atoms: _380  and  _381
REMARK  142  A    between atoms: _381  and  _382
REMARK  143  A    between atoms: _382  and  _383
REMARK  144  A    between atoms: _392  and  _394
REMARK  145  A    between atoms: _394  and  _395
REMARK  146  A    between atoms: _394  and  _397
REMARK  147  A    between atoms: _397  and  _398
REMARK  148  A    between atoms: _401  and  _403
REMARK  149  A    between atoms: _403  and  _404
REMARK  150  A    between atoms: _403  and  _406
REMARK  151  A    between atoms: _406  and  _407
REMARK  152  A    between atoms: _410  and  _412
REMARK  153  A    between atoms: _412  and  _413
REMARK  154  A    between atoms: _416  and  _418
REMARK  155  A    between atoms: _418  and  _419
REMARK  156  A    between atoms: _418  and  _421
REMARK  157  A    between atoms: _421  and  _422
REMARK  158  A    between atoms: _424  and  _426
REMARK  159  A    between atoms: _426  and  _427
REMARK  160  A    between atoms: _426  and  _429
REMARK  161  A    between atoms: _429  and  _430
REMARK  162  A    between atoms: _430  and  _431
REMARK  163  A    between atoms: _431  and  _432
REMARK  164  A    between atoms: _432  and  _433
REMARK  165  A    between atoms: _437  and  _439
REMARK  166  A    between atoms: _439  and  _440
REMARK  167  A    between atoms: _439  and  _442
REMARK  168  A    between atoms: _442  and  _443
REMARK  169  A    between atoms: _448  and  _450
REMARK  170  A    between atoms: _450  and  _451
REMARK  171  A    between atoms: _450  and  _453
REMARK  172  A    between atoms: _453  and  _454
REMARK  173  A    between atoms: _454  and  _455
REMARK  174  A    between atoms: _457  and  _459
REMARK  175  A    between atoms: _459  and  _460
REMARK  176  A    between atoms: _459  and  _462
REMARK  177  A    between atoms: _462  and  _463
REMARK  178  A    between atoms: _463  and  _464
REMARK  179  A    between atoms: _467  and  _469
REMARK  180  A    between atoms: _469  and  _470
REMARK  181  A    between atoms: _469  and  _472
REMARK  182  A    between atoms: _475  and  _477
REMARK  183  A    between atoms: _477  and  _478
REMARK  184  A    between atoms: _477  and  _480
REMARK  185  A    between atoms: _480  and  _481
REMARK  186  A    between atoms: _484  and  _486
REMARK  187  A    between atoms: _486  and  _487
REMARK  188  A    between atoms: _486  and  _489
REMARK  189  A    between atoms: _489  and  _490
REMARK  190  A    between atoms: _493  and  _495
REMARK  191  A    between atoms: _495  and  _496
REMARK  192  A    between atoms: _495  and  _498
REMARK  193  A    between atoms: _498  and  _499
REMARK  194  A    between atoms: _502  and  _504
REMARK  195  A    between atoms: _504  and  _505
REMARK  196  A    between atoms: _507  and  _509
REMARK  197  A    between atoms: _509  and  _510
REMARK  198  A    between atoms: _512  and  _514
REMARK  199  A    between atoms: _514  and  _515
REMARK  200  A    between atoms: _514  and  _517
REMARK  201  A    between atoms: _517  and  _518
REMARK  202  A    between atoms: _518  and  _519
REMARK  203  A    between atoms: _522  and  _524
REMARK  204  A    between atoms: _524  and  _525
REMARK  205  A    between atoms: _524  and  _527
REMARK  206  A    between atoms: _527  and  _528
REMARK  207  A    between atoms: _531  and  _533
REMARK  208  A    between atoms: _533  and  _534
REMARK  209  A    between atoms: _533  and  _536
REMARK  210  A    between atoms: _536  and  _537
REMARK  211  A    between atoms: _543  and  _545
REMARK  212  A    between atoms: _545  and  _546
REMARK  213  A    between atoms: _549  and  _551
REMARK  214  A    between atoms: _551  and  _552
REMARK  215  A    between atoms: _551  and  _554
REMARK  216  A    between atoms: _554  and  _555
REMARK  217  A    between atoms: _560  and  _562
REMARK  218  A    between atoms: _562  and  _563
REMARK  219  A    between atoms: _562  and  _565
REMARK  220  A    between atoms: _565  and  _566
REMARK  221  A    between atoms: _571  and  _573
REMARK  222  A    between atoms: _573  and  _574
REMARK  223  A    between atoms: _573  and  _576
REMARK  224  A    between atoms: _576  and  _577
REMARK  225  A    between atoms: _580  and  _582
REMARK  226  A    between atoms: _582  and  _583
REMARK  227  A    between atoms: _582  and  _585
REMARK  228  A    between atoms: _585  and  _586
REMARK  229  A    between atoms: _591  and  _593
REMARK  230  A    between atoms: _593  and  _594
REMARK  231  A    between atoms: _593  and  _596
REMARK  232  A    between atoms: _596  and  _597
REMARK  233  A    between atoms: _597  and  _598
REMARK  234  A    between atoms: _598  and  _599
REMARK  235  A    between atoms: _608  and  _610
REMARK  236  A    between atoms: _610  and  _611
REMARK  237  A    between atoms: _613  and  _615
REMARK  238  A    between atoms: _615  and  _616
REMARK  239  A    between atoms: _615  and  _618
REMARK  240  A    between atoms: _618  and  _619
REMARK  241  A    between atoms: _624  and  _626
REMARK  242  A    between atoms: _626  and  _627
REMARK  243  A    between atoms: _629  and  _631
REMARK  244  A    between atoms: _631  and  _632
REMARK  245  A    between atoms: _635  and  _637
REMARK  246  A    between atoms: _637  and  _638
REMARK  247  A    between atoms: _640  and  _642
REMARK  248  A    between atoms: _642  and  _643
REMARK  249  A    between atoms: _645  and  _647
REMARK  250  A    between atoms: _647  and  _648
REMARK  251  A    between atoms: _651  and  _653
REMARK  252  A    between atoms: _653  and  _654
REMARK  253  A    between atoms: _653  and  _656
REMARK  254  A    between atoms: _656  and  _657
REMARK  255  A    between atoms: _657  and  _658
REMARK  256  A    between atoms: _658  and  _659
REMARK  257  A    between atoms: _668  and  _670
REMARK  258  A    between atoms: _670  and  _671
REMARK  259  A    between atoms: _670  and  _673
REMARK  260  A    between atoms: _673  and  _674
REMARK  261  A    between atoms: _677  and  _679
REMARK  262  A    between atoms: _679  and  _680
REMARK  263  A    between atoms: _679  and  _682
REMARK  264  A    between atoms: _682  and  _683
REMARK                            x       y       z     vdW  Elec       q    Type
REMARK                         _______ _______ _______ _____ _____    ______ ____
ROOT
ATOM      1  NE  ARG A   1       7.639  -6.465 -15.344  0.00  0.00    -0.265 N 
ATOM      2  CZ  ARG A   1       7.594  -7.749 -15.688  0.00  0.00    +0.342 C 
ATOM      3  NH2 ARG A   1       8.322  -8.645 -15.030  0.00  0.00    -0.292 N 
ATOM      4 HH21 ARG A   1       8.930  -8.343 -14.242  0.00  0.00    +0.255 HD
ATOM      5 HH22 ARG A   1       8.283  -9.648 -15.303  0.00  0.00    +0.255 HD
ATOM      6  NH1 ARG A   1       6.815  -8.135 -16.684  0.00  0.00    -0.292 N 
ATOM      7 HH11 ARG A   1       6.777  -9.138 -16.956  0.00  0.00    +0.255 HD
ATOM      8 HH12 ARG A   1       6.240  -7.436 -17.196  0.00  0.00    +0.255 HD
ATOM      9  HE  ARG A   1       7.055  -5.795 -15.884  0.00  0.00    +0.259 HD
ENDROOT
BRANCH   1  10
ATOM     10  CD  ARG A   1       8.457  -5.939 -14.256  0.00  0.00    +0.174 C 
BRANCH  10  11
ATOM     11  CG  ARG A   1       8.084  -4.503 -13.911  0.00  0.00    +0.045 C 
BRANCH  11  12
ATOM     12  CB  ARG A   1       6.680  -4.394 -13.289  0.00  0.00    +0.029 C 
BRANCH  12  13
ATOM     13  CA  ARG A   1       6.304  -2.957 -12.926  0.00  0.00    +0.133 C 
BRANCH  13  14
ATOM     14  N   ARG A   1       4.945  -2.857 -12.418  0.00  0.00    -0.239 NA
ATOM     15  H   ARG A   1       4.158  -3.157 -13.028  0.00  0.00    +0.142 HD
ENDBRANCH  13  14
BRANCH  13  16
ATOM     16  C   ARG A   1       6.405  -2.099 -14.179  0.00  0.00    +0.224 C 
ATOM     17  O   ARG A   1       5.643  -2.277 -15.137  0.00  0.00    -0.287 OA
ENDBRANCH  13  16
ENDBRANCH  12  13
ENDBRANCH  11  12
ENDBRANCH  10  11
ENDBRANCH   1  10
TORSDOF 6
REMARK  Name = ../refined-set-2016/3old/3old_pocket.pdb
REMARK  264 active torsions:
REMARK  status: ('A' for Active; 'I' for Inactive)
REMARK    1  A    between atoms: _1  and  _3
REMARK    2  A    between atoms: _3  and  _4
REMARK    3  A    between atoms: _3  and  _6
REMARK    4  A    between atoms: _6  and  _7
REMARK    5  A    between atoms: _12  and  _14
REMARK    6  A    between atoms: _14  and  _15
REMARK    7  A    between atoms: _14  and  _17
REMARK    8  A    between atoms: _17  and  _18
REMARK    9  A    between atoms: _24  and  _26
REMARK   10  A    between atoms: _26  and  _27
REMARK   11  A    between atoms: _26  and  _29
REMARK   12  A    between atoms: _29  and  _30
REMARK   13  A    between atoms: _30  and  _31
REMARK   14  A    between atoms: _37  and  _38
REMARK   15  A    between atoms: _43  and  _45
REMARK   16  A    between atoms: _45  and  _46
REMARK   17  A    between atoms: _45  and  _48
REMARK   18  A    between atoms: _48  and  _49
REMARK   19  A    between atoms: _54  and  _56
REMARK   20  A    between atoms: _56  and  _57
REMARK   21  A    between atoms: _56  and  _59
REMARK   22  A    between atoms: _62  and  _64
REMARK   23  A    between atoms: _64  and  _65
REMARK   24  A    between atoms: _64  and  _67
REMARK   25  A    between atoms: _67  and  _68
REMARK   26  A    between atoms: _72  and  _73
REMARK   27  A    between atoms: _79  and  _80
REMARK   28  A    between atoms: _85  and  _87
REMARK   29  A    between atoms: _87  and  _88
REMARK   30  A    between atoms: _87  and  _90
REMARK   31  A    between atoms: _90  and  _91
REMARK   32  A    between atoms: _101  and  _103
REMARK   33  A    between atoms: _103  and  _104
REMARK   34  A    between atoms: _103  and  _106
REMARK   35  A    between atoms: _106  and  _107
REMARK   36  A    between atoms: _117  and  _119
REMARK   37  A    between atoms: _119  and  _120
REMARK   38  A    between atoms: _119  and  _122
REMARK   39  A    between atoms: _122  and  _123
REMARK   40  A    between atoms: _123  and  _124
REMARK   41  A    between atoms: _127  and  _129
REMARK   42  A    between atoms: _129  and  _130
REMARK   43  A    between atoms: _129  and  _132
REMARK   44  A    between atoms: _132  and  _133
REMARK   45  A    between atoms: _133  and  _134
REMARK   46  A    between atoms: _134  and  _135
REMARK   47  A    between atoms: _144  and  _146
REMARK   48  A    between atoms: _146  and  _147
REMARK   49  A    between atoms: _146  and  _149
REMARK   50  A    between atoms: _149  and  _150
REMARK   51  A    between atoms: _155  and  _156
REMARK   52  A    between atoms: _158  and  _160
REMARK   53  A    between atoms: _160  and  _161
REMARK   54  A    between atoms: _160  and  _163
REMARK   55  A    between atoms: _163  and  _164
REMARK   56  A    between atoms: _164  and  _165
REMARK   57  A    between atoms: _171  and  _172
REMARK   58  A    between atoms: _177  and  _179
REMARK   59  A    between atoms: _179  and  _180
REMARK   60  A    between atoms: _179  and  _182
REMARK   61  A    between atoms: _182  and  _183
REMARK   62  A    between atoms: _186  and  _188
REMARK   63  A    between atoms: _188  and  _189
REMARK   64  A    between atoms: _192  and  _194
REMARK   65  A    between atoms: _194  and  _195
REMARK   66  A    between atoms: _194  and  _197
REMARK   67  A    between atoms: _200  and  _202
REMARK   68  A    between atoms: _202  and  _203
REMARK   69  A    between atoms: _202  and  _205
REMARK   70  A    between atoms: _205  and  _206
REMARK   71  A    between atoms: _209  and  _211
REMARK   72  A    between atoms: _211  and  _212
REMARK   73  A    between atoms: _211  and  _214
REMARK   74  A    between atoms: _214  and  _215
REMARK   75  A    between atoms: _220  and  _222
REMARK   76  A    between atoms: _222  and  _223
REMARK   77  A    between atoms: _222  and  _225
REMARK   78  A    between atoms: _225  and  _226
REMARK   79  A    between atoms: _231  and  _233
REMARK   80  A    between atoms: _233  and  _234
REMARK   81  A    between atoms: _233  and  _236
REMARK   82  A    between atoms: _236  and  _237
REMARK   83  A    between atoms: _237  and  _238
REMARK   84  A    between atoms: _240  and  _242
REMARK   85  A    between atoms: _242  and  _243
REMARK   86  A    between atoms: _242  and  _245
REMARK   87  A    between atoms: _247  and  _249
REMARK   88  A    between atoms: _249  and  _250
REMARK   89  A    between atoms: _252  and  _254
REMARK   90  A    between atoms: _254  and  _255
REMARK   91  A    between atoms: _254  and  _257
REMARK   92  A    between atoms: _257  and  _258
REMARK   93  A    between atoms: _263  and  _265
REMARK   94  A    between atoms: _265  and  _266
REMARK   95  A    between atoms: _269  and  _271
REMARK   96  A    between atoms: _271  and  _272
REMARK   97  A    between atoms: _271  and  _274
REMARK   98  A    between atoms: _277  and  _279
REMARK   99  A    between atoms: _279  and  _280
REMARK  100  A    between atoms: _279  and  _282
REMARK  101  A    between atoms: _282  and  _283
REMARK  102  A    between atoms: _286  and  _288
REMARK  103  A    between atoms: _288  and  _289
REMARK  104  A    between atoms: _288  and  _291
REMARK  105  A    between atoms: _291  and  _292
REMARK  106  A    between atoms: _295  and  _297
REMARK  107  A    between atoms: _297  and  _298
REMARK  108  A    between atoms: _297  and  _300
REMARK  109  A    between atoms: _300  and  _301
REMARK  110  A    between atoms: _306  and  _307
REMARK  111  A    between atoms: _309  and  _311
REMARK  112  A    between atoms: _311  and  _312
REMARK  113  A    between atoms: _311  and  _314
REMARK  114  A    between atoms: _317  and  _319
REMARK  115  A    between atoms: _319  and  _320
REMARK  116  A    between atoms: _319  and  _322
REMARK  117  A    between atoms: _322  and  _323
REMARK  118  A    between atoms: _323  and  _324
REMARK  119  A    between atoms: _324  and  _325
REMARK  120  A    between atoms: _334  and  _336
REMARK  121  A    between atoms: _336  and  _337
REMARK  122  A    between atoms: _336  and  _339
REMARK  123  A    between atoms: _339  and  _340
REMARK  124  A    between atoms: _343  and  _345
REMARK  125  A    between atoms: _345  and  _346
REMARK  126  A    between atoms: _345  and  _348
REMARK  127  A    between atoms: _348  and  _349
REMARK  128  A    between atoms: _352  and  _354
REMARK  129  A    between atoms: _354  and  _355
REMARK  130  A    between atoms: _357  and  _359
REMARK  131  A    between atoms: _359  and  _360
REMARK  132  A    between atoms: _359  and  _362
REMARK  133  A    between atoms: _362  and  _363
REMARK  134  A    between atoms: _366  and  _368
REMARK  135  A    between atoms: _368  and  _369
REMARK  136  A    between atoms: _368  and  _371
REMARK  137  A    between atoms: _371  and  _372
REMARK  138  A    between atoms: _375  and  _377
REMARK  139  A    between atoms: _377  and  _378
REMARK  140  A    between atoms: _377  and  _380
REMARK  141  A    between atoms: _380  and  _381
REMARK  142  A    between atoms: _381  and  _382
REMARK  143  A    between atoms: _382  and  _383
REMARK  144  A    between atoms: _392  and  _394
REMARK  145  A    between atoms: _394  and  _395
REMARK  146  A    between atoms: _394  and  _397
REMARK  147  A    between atoms: _397  and  _398
REMARK  148  A    between atoms: _401  and  _403
REMARK  149  A    between atoms: _403  and  _404
REMARK  150  A    between atoms: _403  and  _406
REMARK  151  A    between atoms: _406  and  _407
REMARK  152  A    between atoms: _410  and  _412
REMARK  153  A    between atoms: _412  and  _413
REMARK  154  A    between atoms: _416  and  _418
REMARK  155  A    between atoms: _418  and  _419
REMARK  156  A    between atoms: _418  and  _421
REMARK  157  A    between atoms: _421  and  _422
REMARK  158  A    between atoms: _424  and  _426
REMARK  159  A    between atoms: _426  and  _427
REMARK  160  A    between atoms: _426  and  _429
REMARK  161  A    between atoms: _429  and  _430
REMARK  162  A    between atoms: _430  and  _431
REMARK  163  A    between atoms: _431  and  _432
REMARK  164  A    between atoms: _432  and  _433
REMARK  165  A    between atoms: _437  and  _439
REMARK  166  A    between atoms: _439  and  _440
REMARK  167  A    between atoms: _439  and  _442
REMARK  168  A    between atoms: _442  and  _443
REMARK  169  A    between atoms: _448  and  _450
REMARK  170  A    between atoms: _450  and  _451
REMARK  171  A    between atoms: _450  and  _453
REMARK  172  A    between atoms: _453  and  _454
REMARK  173  A    between atoms: _454  and  _455
REMARK  174  A    between atoms: _457  and  _459
REMARK  175  A    between atoms: _459  and  _460
REMARK  176  A    between atoms: _459  and  _462
REMARK  177  A    between atoms: _462  and  _463
REMARK  178  A    between atoms: _463  and  _464
REMARK  179  A    between atoms: _467  and  _469
REMARK  180  A    between atoms: _469  and  _470
REMARK  181  A    between atoms: _469  and  _472
REMARK  182  A    between atoms: _475  and  _477
REMARK  183  A    between atoms: _477  and  _478
REMARK  184  A    between atoms: _477  and  _480
REMARK  185  A    between atoms: _480  and  _481
REMARK  186  A    between atoms: _484  and  _486
REMARK  187  A    between atoms: _486  and  _487
REMARK  188  A    between atoms: _486  and  _489
REMARK  189  A    between atoms: _489  and  _490
REMARK  190  A    between atoms: _493  and  _495
REMARK  191  A    between atoms: _495  and  _496
REMARK  192  A    between atoms: _495  and  _498
REMARK  193  A    between atoms: _498  and  _499
REMARK  194  A    between atoms: _502  and  _504
REMARK  195  A    between atoms: _504  and  _505
REMARK  196  A    between atoms: _507  and  _509
REMARK  197  A    between atoms: _509  and  _510
REMARK  198  A    between atoms: _512  and  _514
REMARK  199  A    between atoms: _514  and  _515
REMARK  200  A    between atoms: _514  and  _517
REMARK  201  A    between atoms: _517  and  _518
REMARK  202  A    between atoms: _518  and  _519
REMARK  203  A    between atoms: _522  and  _524
REMARK  204  A    between atoms: _524  and  _525
REMARK  205  A    between atoms: _524  and  _527
REMARK  206  A    between atoms: _527  and  _528
REMARK  207  A    between atoms: _531  and  _533
REMARK  208  A    between atoms: _533  and  _534
REMARK  209  A    between atoms: _533  and  _536
REMARK  210  A    between atoms: _536  and  _537
REMARK  211  A    between atoms: _543  and  _545
REMARK  212  A    between atoms: _545  and  _546
REMARK  213  A    between atoms: _549  and  _551
REMARK  214  A    between atoms: _551  and  _552
REMARK  215  A    between atoms: _551  and  _554
REMARK  216  A    between atoms: _554  and  _555
REMARK  217  A    between atoms: _560  and  _562
REMARK  218  A    between atoms: _562  and  _563
REMARK  219  A    between atoms: _562  and  _565
REMARK  220  A    between atoms: _565  and  _566
REMARK  221  A    between atoms: _571  and  _573
REMARK  222  A    between atoms: _573  and  _574
REMARK  223  A    between atoms: _573  and  _576
REMARK  224  A    between atoms: _576  and  _577
REMARK  225  A    between atoms: _580  and  _582
REMARK  226  A    between atoms: _582  and  _583
REMARK  227  A    between atoms: _582  and  _585
REMARK  228  A    between atoms: _585  and  _586
REMARK  229  A    between atoms: _591  and  _593
REMARK  230  A    between atoms: _593  and  _594
REMARK  231  A    between atoms: _593  and  _596
REMARK  232  A    between atoms: _596  and  _597
REMARK  233  A    between atoms: _597  and  _598
REMARK  234  A    between atoms: _598  and  _599
REMARK  235  A    between atoms: _608  and  _610
REMARK  236  A    between atoms: _610  and  _611
REMARK  237  A    between atoms: _613  and  _615
REMARK  238  A    between atoms: _615  and  _616
REMARK  239  A    between atoms: _615  and  _618
REMARK  240  A    between atoms: _618  and  _619
REMARK  241  A    between atoms: _624  and  _626
REMARK  242  A    between atoms: _626  and  _627
REMARK  243  A    between atoms: _629  and  _631
REMARK  244  A    between atoms: _631  and  _632
REMARK  245  A    between atoms: _635  and  _637
REMARK  246  A    between atoms: _637  and  _638
REMARK  247  A    between atoms: _640  and  _642
REMARK  248  A    between atoms: _642  and  _643
REMARK  249  A    between atoms: _645  and  _647
REMARK  250  A    between atoms: _647  and  _648
REMARK  251  A    between atoms: _651  and  _653
REMARK  252  A    between atoms: _653  and  _654
REMARK  253  A    between atoms: _653  and  _656
REMARK  254  A    between atoms: _656  and  _657
REMARK  255  A    between atoms: _657  and  _658
REMARK  256  A    between atoms: _658  and  _659
REMARK  257  A    between atoms: _668  and  _670
REMARK  258  A    between atoms: _670  and  _671
REMARK  259  A    between atoms: _670  and  _673
REMARK  260  A    between atoms: _673  and  _674
REMARK  261  A    between atoms: _677  and  _679
REMARK  262  A    between atoms: _679  and  _680
REMARK  263  A    between atoms: _679  and  _682
REMARK  264  A    between atoms: _682  and  _683
REMARK                            x       y       z     vdW  Elec       q    Type
REMARK                         _______ _______ _______ _____ _____    ______ ____
ROOT
ATOM      1  CA  TRP A   2      16.453 -10.700 -31.770  0.00  0.00    +0.141 C 
ENDROOT
BRANCH   1   4
ATOM      2  C   ASP A   1      14.283  -9.585 -31.930  0.00  0.00    +0.239 C 
ATOM      3  O   ASP A   1      14.052  -9.749 -30.735  0.00  0.00    -0.274 OA
ATOM      4  N   TRP A   2      15.407  -9.996 -32.511  0.00  0.00    -0.298 N 
ATOM      5  H   TRP A   2      15.546  -9.811 -33.525  0.00  0.00    +0.150 HD
BRANCH   2   6
ATOM      6  CA  ASP A   1      13.272  -8.867 -32.826  0.00  0.00    +0.156 C 
BRANCH   6   7
ATOM      7  N   ASP A   1      13.765  -8.692 -34.189  0.00  0.00    -0.238 NA
ATOM      8  H   ASP A   1      13.357  -9.259 -34.960  0.00  0.00    +0.142 HD
ENDBRANCH   6   7
BRANCH   6   9
ATOM      9  CB  ASP A   1      11.940  -9.634 -32.829  0.00  0.00    +0.140 C 
BRANCH   9  10
ATOM     10  CG  ASP A   1      12.052 -11.015 -33.458  0.00  0.00    +0.367 C 
ATOM     11  OD2 ASP A   1      11.002 -11.673 -33.617  0.00  0.00    -0.246 OA
ATOM     12  OD1 ASP A   1      13.178 -11.447 -33.786  0.00  0.00    -0.246 OA
ENDBRANCH   9  10
ENDBRANCH   6   9
ENDBRANCH   2   6
ENDBRANCH   1   4
BRANCH   1  13
ATOM     13  C   TRP A   2      17.572  -9.779 -31.292  0.00  0.00    +0.227 C 
ATOM     14  O   TRP A   2      18.326 -10.126 -30.382  0.00  0.00    -0.286 OA
ENDBRANCH   1  13
BRANCH   1  15
ATOM     15  CB  TRP A   2      17.093 -11.774 -32.649  0.00  0.00    +0.056 C 
BRANCH  15  16
ATOM     16  CG  TRP A   2      17.704 -11.206 -33.910  0.00  0.00    -0.002 A 
ATOM     17  CD2 TRP A   2      19.004 -10.610 -34.051  0.00  0.00    +0.013 A 
ATOM     18  CE3 TRP A   2      20.080 -10.403 -33.177  0.00  0.00    +0.001 A 
ATOM     19  CZ3 TRP A   2      21.227  -9.767 -33.664  0.00  0.00    +0.000 A 
ATOM     20  CH2 TRP A   2      21.308  -9.342 -35.002  0.00  0.00    +0.001 A 
ATOM     21  CZ2 TRP A   2      20.268  -9.533 -35.878  0.00  0.00    +0.017 A 
ATOM     22  CE2 TRP A   2      19.118 -10.170 -35.390  0.00  0.00    +0.056 A 
ATOM     23  NE1 TRP A   2      17.947 -10.484 -36.027  0.00  0.00    -0.352 N 
ATOM     24  HE1 TRP A   2      17.730 -10.285 -37.024  0.00  0.00    +0.166 HD
ATOM     25  CD1 TRP A   2      17.105 -11.105 -35.134  0.00  0.00    +0.068 A 
ENDBRANCH  15  16
ENDBRANCH   1  15
TORSDOF 8
REMARK  Name = ../refined-set-2016/3old/3old_pocket.pdb
REMARK  264 active torsions:
REMARK  status: ('A' for Active; 'I' for Inactive)
REMARK    1  A    between atoms: _1  and  _3
REMARK    2  A    between atoms: _3  and  _4
REMARK    3  A    between atoms: _3  and  _6
REMARK    4  A    between atoms: _6  and  _7
REMARK    5  A    between atoms: _12  and  _14
REMARK    6  A    between atoms: _14  and  _15
REMARK    7  A    between atoms: _14  and  _17
REMARK    8  A    between atoms: _17  and  _18
REMARK    9  A    between atoms: _24  and  _26
REMARK   10  A    between atoms: _26  and  _27
REMARK   11  A    between atoms: _26  and  _29
REMARK   12  A    between atoms: _29  and  _30
REMARK   13  A    between atoms: _30  and  _31
REMARK   14  A    between atoms: _37  and  _38
REMARK   15  A    between atoms: _43  and  _45
REMARK   16  A    between atoms: _45  and  _46
REMARK   17  A    between atoms: _45  and  _48
REMARK   18  A    between atoms: _48  and  _49
REMARK   19  A    between atoms: _54  and  _56
REMARK   20  A    between atoms: _56  and  _57
REMARK   21  A    between atoms: _56  and  _59
REMARK   22  A    between atoms: _62  and  _64
REMARK   23  A    between atoms: _64  and  _65
REMARK   24  A    between atoms: _64  and  _67
REMARK   25  A    between atoms: _67  and  _68
REMARK   26  A    between atoms: _72  and  _73
REMARK   27  A    between atoms: _79  and  _80
REMARK   28  A    between atoms: _85  and  _87
REMARK   29  A    between atoms: _87  and  _88
REMARK   30  A    between atoms: _87  and  _90
REMARK   31  A    between atoms: _90  and  _91
REMARK   32  A    between atoms: _101  and  _103
REMARK   33  A    between atoms: _103  and  _104
REMARK   34  A    between atoms: _103  and  _106
REMARK   35  A    between atoms: _106  and  _107
REMARK   36  A    between atoms: _117  and  _119
REMARK   37  A    between atoms: _119  and  _120
REMARK   38  A    between atoms: _119  and  _122
REMARK   39  A    between atoms: _122  and  _123
REMARK   40  A    between atoms: _123  and  _124
REMARK   41  A    between atoms: _127  and  _129
REMARK   42  A    between atoms: _129  and  _130
REMARK   43  A    between atoms: _129  and  _132
REMARK   44  A    between atoms: _132  and  _133
REMARK   45  A    between atoms: _133  and  _134
REMARK   46  A    between atoms: _134  and  _135
REMARK   47  A    between atoms: _144  and  _146
REMARK   48  A    between atoms: _146  and  _147
REMARK   49  A    between atoms: _146  and  _149
REMARK   50  A    between atoms: _149  and  _150
REMARK   51  A    between atoms: _155  and  _156
REMARK   52  A    between atoms: _158  and  _160
REMARK   53  A    between atoms: _160  and  _161
REMARK   54  A    between atoms: _160  and  _163
REMARK   55  A    between atoms: _163  and  _164
REMARK   56  A    between atoms: _164  and  _165
REMARK   57  A    between atoms: _171  and  _172
REMARK   58  A    between atoms: _177  and  _179
REMARK   59  A    between atoms: _179  and  _180
REMARK   60  A    between atoms: _179  and  _182
REMARK   61  A    between atoms: _182  and  _183
REMARK   62  A    between atoms: _186  and  _188
REMARK   63  A    between atoms: _188  and  _189
REMARK   64  A    between atoms: _192  and  _194
REMARK   65  A    between atoms: _194  and  _195
REMARK   66  A    between atoms: _194  and  _197
REMARK   67  A    between atoms: _200  and  _202
REMARK   68  A    between atoms: _202  and  _203
REMARK   69  A    between atoms: _202  and  _205
REMARK   70  A    between atoms: _205  and  _206
REMARK   71  A    between atoms: _209  and  _211
REMARK   72  A    between atoms: _211  and  _212
REMARK   73  A    between atoms: _211  and  _214
REMARK   74  A    between atoms: _214  and  _215
REMARK   75  A    between atoms: _220  and  _222
REMARK   76  A    between atoms: _222  and  _223
REMARK   77  A    between atoms: _222  and  _225
REMARK   78  A    between atoms: _225  and  _226
REMARK   79  A    between atoms: _231  and  _233
REMARK   80  A    between atoms: _233  and  _234
REMARK   81  A    between atoms: _233  and  _236
REMARK   82  A    between atoms: _236  and  _237
REMARK   83  A    between atoms: _237  and  _238
REMARK   84  A    between atoms: _240  and  _242
REMARK   85  A    between atoms: _242  and  _243
REMARK   86  A    between atoms: _242  and  _245
REMARK   87  A    between atoms: _247  and  _249
REMARK   88  A    between atoms: _249  and  _250
REMARK   89  A    between atoms: _252  and  _254
REMARK   90  A    between atoms: _254  and  _255
REMARK   91  A    between atoms: _254  and  _257
REMARK   92  A    between atoms: _257  and  _258
REMARK   93  A    between atoms: _263  and  _265
REMARK   94  A    between atoms: _265  and  _266
REMARK   95  A    between atoms: _269  and  _271
REMARK   96  A    between atoms: _271  and  _272
REMARK   97  A    between atoms: _271  and  _274
REMARK   98  A    between atoms: _277  and  _279
REMARK   99  A    between atoms: _279  and  _280
REMARK  100  A    between atoms: _279  and  _282
REMARK  101  A    between atoms: _282  and  _283
REMARK  102  A    between atoms: _286  and  _288
REMARK  103  A    between atoms: _288  and  _289
REMARK  104  A    between atoms: _288  and  _291
REMARK  105  A    between atoms: _291  and  _292
REMARK  106  A    between atoms: _295  and  _297
REMARK  107  A    between atoms: _297  and  _298
REMARK  108  A    between atoms: _297  and  _300
REMARK  109  A    between atoms: _300  and  _301
REMARK  110  A    between atoms: _306  and  _307
REMARK  111  A    between atoms: _309  and  _311
REMARK  112  A    between atoms: _311  and  _312
REMARK  113  A    between atoms: _311  and  _314
REMARK  114  A    between atoms: _317  and  _319
REMARK  115  A    between atoms: _319  and  _320
REMARK  116  A    between atoms: _319  and  _322
REMARK  117  A    between atoms: _322  and  _323
REMARK  118  A    between atoms: _323  and  _324
REMARK  119  A    between atoms: _324  and  _325
REMARK  120  A    between atoms: _334  and  _336
REMARK  121  A    between atoms: _336  and  _337
REMARK  122  A    between atoms: _336  and  _339
REMARK  123  A    between atoms: _339  and  _340
REMARK  124  A    between atoms: _343  and  _345
REMARK  125  A    between atoms: _345  and  _346
REMARK  126  A    between atoms: _345  and  _348
REMARK  127  A    between atoms: _348  and  _349
REMARK  128  A    between atoms: _352  and  _354
REMARK  129  A    between atoms: _354  and  _355
REMARK  130  A    between atoms: _357  and  _359
REMARK  131  A    between atoms: _359  and  _360
REMARK  132  A    between atoms: _359  and  _362
REMARK  133  A    between atoms: _362  and  _363
REMARK  134  A    between atoms: _366  and  _368
REMARK  135  A    between atoms: _368  and  _369
REMARK  136  A    between atoms: _368  and  _371
REMARK  137  A    between atoms: _371  and  _372
REMARK  138  A    between atoms: _375  and  _377
REMARK  139  A    between atoms: _377  and  _378
REMARK  140  A    between atoms: _377  and  _380
REMARK  141  A    between atoms: _380  and  _381
REMARK  142  A    between atoms: _381  and  _382
REMARK  143  A    between atoms: _382  and  _383
REMARK  144  A    between atoms: _392  and  _394
REMARK  145  A    between atoms: _394  and  _395
REMARK  146  A    between atoms: _394  and  _397
REMARK  147  A    between atoms: _397  and  _398
REMARK  148  A    between atoms: _401  and  _403
REMARK  149  A    between atoms: _403  and  _404
REMARK  150  A    between atoms: _403  and  _406
REMARK  151  A    between atoms: _406  and  _407
REMARK  152  A    between atoms: _410  and  _412
REMARK  153  A    between atoms: _412  and  _413
REMARK  154  A    between atoms: _416  and  _418
REMARK  155  A    between atoms: _418  and  _419
REMARK  156  A    between atoms: _418  and  _421
REMARK  157  A    between atoms: _421  and  _422
REMARK  158  A    between atoms: _424  and  _426
REMARK  159  A    between atoms: _426  and  _427
REMARK  160  A    between atoms: _426  and  _429
REMARK  161  A    between atoms: _429  and  _430
REMARK  162  A    between atoms: _430  and  _431
REMARK  163  A    between atoms: _431  and  _432
REMARK  164  A    between atoms: _432  and  _433
REMARK  165  A    between atoms: _437  and  _439
REMARK  166  A    between atoms: _439  and  _440
REMARK  167  A    between atoms: _439  and  _442
REMARK  168  A    between atoms: _442  and  _443
REMARK  169  A    between atoms: _448  and  _450
REMARK  170  A    between atoms: _450  and  _451
REMARK  171  A    between atoms: _450  and  _453
REMARK  172  A    between atoms: _453  and  _454
REMARK  173  A    between atoms: _454  and  _455
REMARK  174  A    between atoms: _457  and  _459
REMARK  175  A    between atoms: _459  and  _460
REMARK  176  A    between atoms: _459  and  _462
REMARK  177  A    between atoms: _462  and  _463
REMARK  178  A    between atoms: _463  and  _464
REMARK  179  A    between atoms: _467  and  _469
REMARK  180  A    between atoms: _469  and  _470
REMARK  181  A    between atoms: _469  and  _472
REMARK  182  A    between atoms: _475  and  _477
REMARK  183  A    between atoms: _477  and  _478
REMARK  184  A    between atoms: _477  and  _480
REMARK  185  A    between atoms: _480  and  _481
REMARK  186  A    between atoms: _484  and  _486
REMARK  187  A    between atoms: _486  and  _487
REMARK  188  A    between atoms: _486  and  _489
REMARK  189  A    between atoms: _489  and  _490
REMARK  190  A    between atoms: _493  and  _495
REMARK  191  A    between atoms: _495  and  _496
REMARK  192  A    between atoms: _495  and  _498
REMARK  193  A    between atoms: _498  and  _499
REMARK  194  A    between atoms: _502  and  _504
REMARK  195  A    between atoms: _504  and  _505
REMARK  196  A    between atoms: _507  and  _509
REMARK  197  A    between atoms: _509  and  _510
REMARK  198  A    between atoms: _512  and  _514
REMARK  199  A    between atoms: _514  and  _515
REMARK  200  A    between atoms: _514  and  _517
REMARK  201  A    between atoms: _517  and  _518
REMARK  202  A    between atoms: _518  and  _519
REMARK  203  A    between atoms: _522  and  _524
REMARK  204  A    between atoms: _524  and  _525
REMARK  205  A    between atoms: _524  and  _527
REMARK  206  A    between atoms: _527  and  _528
REMARK  207  A    between atoms: _531  and  _533
REMARK  208  A    between atoms: _533  and  _534
REMARK  209  A    between atoms: _533  and  _536
REMARK  210  A    between atoms: _536  and  _537
REMARK  211  A    between atoms: _543  and  _545
REMARK  212  A    between atoms: _545  and  _546
REMARK  213  A    between atoms: _549  and  _551
REMARK  214  A    between atoms: _551  and  _552
REMARK  215  A    between atoms: _551  and  _554
REMARK  216  A    between atoms: _554  and  _555
REMARK  217  A    between atoms: _560  and  _562
REMARK  218  A    between atoms: _562  and  _563
REMARK  219  A    between atoms: _562  and  _565
REMARK  220  A    between atoms: _565  and  _566
REMARK  221  A    between atoms: _571  and  _573
REMARK  222  A    between atoms: _573  and  _574
REMARK  223  A    between atoms: _573  and  _576
REMARK  224  A    between atoms: _576  and  _577
REMARK  225  A    between atoms: _580  and  _582
REMARK  226  A    between atoms: _582  and  _583
REMARK  227  A    between atoms: _582  and  _585
REMARK  228  A    between atoms: _585  and  _586
REMARK  229  A    between atoms: _591  and  _593
REMARK  230  A    between atoms: _593  and  _594
REMARK  231  A    between atoms: _593  and  _596
REMARK  232  A    between atoms: _596  and  _597
REMARK  233  A    between atoms: _597  and  _598
REMARK  234  A    between atoms: _598  and  _599
REMARK  235  A    between atoms: _608  and  _610
REMARK  236  A    between atoms: _610  and  _611
REMARK  237  A    between atoms: _613  and  _615
REMARK  238  A    between atoms: _615  and  _616
REMARK  239  A    between atoms: _615  and  _618
REMARK  240  A    between atoms: _618  and  _619
REMARK  241  A    between atoms: _624  and  _626
REMARK  242  A    between atoms: _626  and  _627
REMARK  243  A    between atoms: _629  and  _631
REMARK  244  A    between atoms: _631  and  _632
REMARK  245  A    between atoms: _635  and  _637
REMARK  246  A    between atoms: _637  and  _638
REMARK  247  A    between atoms: _640  and  _642
REMARK  248  A    between atoms: _642  and  _643
REMARK  249  A    between atoms: _645  and  _647
REMARK  250  A    between atoms: _647  and  _648
REMARK  251  A    between atoms: _651  and  _653
REMARK  252  A    between atoms: _653  and  _654
REMARK  253  A    between atoms: _653  and  _656
REMARK  254  A    between atoms: _656  and  _657
REMARK  255  A    between atoms: _657  and  _658
REMARK  256  A    between atoms: _658  and  _659
REMARK  257  A    between atoms: _668  and  _670
REMARK  258  A    between atoms: _670  and  _671
REMARK  259  A    between atoms: _670  and  _673
REMARK  260  A    between atoms: _673  and  _674
REMARK  261  A    between atoms: _677  and  _679
REMARK  262  A    between atoms: _679  and  _680
REMARK  263  A    between atoms: _679  and  _682
REMARK  264  A    between atoms: _682  and  _683
REMARK                            x       y       z     vdW  Elec       q    Type
REMARK                         _______ _______ _______ _____ _____    ______ ____
ROOT
ATOM      1  O   HOH     1      10.109  -9.247 -17.636  0.00  0.00    +0.000 OA
ENDROOT
TORSDOF 0
REMARK  Name = ../refined-set-2016/3old/3old_pocket.pdb
REMARK  264 active torsions:
REMARK  status: ('A' for Active; 'I' for Inactive)
REMARK    1  A    between atoms: _1  and  _3
REMARK    2  A    between atoms: _3  and  _4
REMARK    3  A    between atoms: _3  and  _6
REMARK    4  A    between atoms: _6  and  _7
REMARK    5  A    between atoms: _12  and  _14
REMARK    6  A    between atoms: _14  and  _15
REMARK    7  A    between atoms: _14  and  _17
REMARK    8  A    between atoms: _17  and  _18
REMARK    9  A    between atoms: _24  and  _26
REMARK   10  A    between atoms: _26  and  _27
REMARK   11  A    between atoms: _26  and  _29
REMARK   12  A    between atoms: _29  and  _30
REMARK   13  A    between atoms: _30  and  _31
REMARK   14  A    between atoms: _37  and  _38
REMARK   15  A    between atoms: _43  and  _45
REMARK   16  A    between atoms: _45  and  _46
REMARK   17  A    between atoms: _45  and  _48
REMARK   18  A    between atoms: _48  and  _49
REMARK   19  A    between atoms: _54  and  _56
REMARK   20  A    between atoms: _56  and  _57
REMARK   21  A    between atoms: _56  and  _59
REMARK   22  A    between atoms: _62  and  _64
REMARK   23  A    between atoms: _64  and  _65
REMARK   24  A    between atoms: _64  and  _67
REMARK   25  A    between atoms: _67  and  _68
REMARK   26  A    between atoms: _72  and  _73
REMARK   27  A    between atoms: _79  and  _80
REMARK   28  A    between atoms: _85  and  _87
REMARK   29  A    between atoms: _87  and  _88
REMARK   30  A    between atoms: _87  and  _90
REMARK   31  A    between atoms: _90  and  _91
REMARK   32  A    between atoms: _101  and  _103
REMARK   33  A    between atoms: _103  and  _104
REMARK   34  A    between atoms: _103  and  _106
REMARK   35  A    between atoms: _106  and  _107
REMARK   36  A    between atoms: _117  and  _119
REMARK   37  A    between atoms: _119  and  _120
REMARK   38  A    between atoms: _119  and  _122
REMARK   39  A    between atoms: _122  and  _123
REMARK   40  A    between atoms: _123  and  _124
REMARK   41  A    between atoms: _127  and  _129
REMARK   42  A    between atoms: _129  and  _130
REMARK   43  A    between atoms: _129  and  _132
REMARK   44  A    between atoms: _132  and  _133
REMARK   45  A    between atoms: _133  and  _134
REMARK   46  A    between atoms: _134  and  _135
REMARK   47  A    between atoms: _144  and  _146
REMARK   48  A    between atoms: _146  and  _147
REMARK   49  A    between atoms: _146  and  _149
REMARK   50  A    between atoms: _149  and  _150
REMARK   51  A    between atoms: _155  and  _156
REMARK   52  A    between atoms: _158  and  _160
REMARK   53  A    between atoms: _160  and  _161
REMARK   54  A    between atoms: _160  and  _163
REMARK   55  A    between atoms: _163  and  _164
REMARK   56  A    between atoms: _164  and  _165
REMARK   57  A    between atoms: _171  and  _172
REMARK   58  A    between atoms: _177  and  _179
REMARK   59  A    between atoms: _179  and  _180
REMARK   60  A    between atoms: _179  and  _182
REMARK   61  A    between atoms: _182  and  _183
REMARK   62  A    between atoms: _186  and  _188
REMARK   63  A    between atoms: _188  and  _189
REMARK   64  A    between atoms: _192  and  _194
REMARK   65  A    between atoms: _194  and  _195
REMARK   66  A    between atoms: _194  and  _197
REMARK   67  A    between atoms: _200  and  _202
REMARK   68  A    between atoms: _202  and  _203
REMARK   69  A    between atoms: _202  and  _205
REMARK   70  A    between atoms: _205  and  _206
REMARK   71  A    between atoms: _209  and  _211
REMARK   72  A    between atoms: _211  and  _212
REMARK   73  A    between atoms: _211  and  _214
REMARK   74  A    between atoms: _214  and  _215
REMARK   75  A    between atoms: _220  and  _222
REMARK   76  A    between atoms: _222  and  _223
REMARK   77  A    between atoms: _222  and  _225
REMARK   78  A    between atoms: _225  and  _226
REMARK   79  A    between atoms: _231  and  _233
REMARK   80  A    between atoms: _233  and  _234
REMARK   81  A    between atoms: _233  and  _236
REMARK   82  A    between atoms: _236  and  _237
REMARK   83  A    between atoms: _237  and  _238
REMARK   84  A    between atoms: _240  and  _242
REMARK   85  A    between atoms: _242  and  _243
REMARK   86  A    between atoms: _242  and  _245
REMARK   87  A    between atoms: _247  and  _249
REMARK   88  A    between atoms: _249  and  _250
REMARK   89  A    between atoms: _252  and  _254
REMARK   90  A    between atoms: _254  and  _255
REMARK   91  A    between atoms: _254  and  _257
REMARK   92  A    between atoms: _257  and  _258
REMARK   93  A    between atoms: _263  and  _265
REMARK   94  A    between atoms: _265  and  _266
REMARK   95  A    between atoms: _269  and  _271
REMARK   96  A    between atoms: _271  and  _272
REMARK   97  A    between atoms: _271  and  _274
REMARK   98  A    between atoms: _277  and  _279
REMARK   99  A    between atoms: _279  and  _280
REMARK  100  A    between atoms: _279  and  _282
REMARK  101  A    between atoms: _282  and  _283
REMARK  102  A    between atoms: _286  and  _288
REMARK  103  A    between atoms: _288  and  _289
REMARK  104  A    between atoms: _288  and  _291
REMARK  105  A    between atoms: _291  and  _292
REMARK  106  A    between atoms: _295  and  _297
REMARK  107  A    between atoms: _297  and  _298
REMARK  108  A    between atoms: _297  and  _300
REMARK  109  A    between atoms: _300  and  _301
REMARK  110  A    between atoms: _306  and  _307
REMARK  111  A    between atoms: _309  and  _311
REMARK  112  A    between atoms: _311  and  _312
REMARK  113  A    between atoms: _311  and  _314
REMARK  114  A    between atoms: _317  and  _319
REMARK  115  A    between atoms: _319  and  _320
REMARK  116  A    between atoms: _319  and  _322
REMARK  117  A    between atoms: _322  and  _323
REMARK  118  A    between atoms: _323  and  _324
REMARK  119  A    between atoms: _324  and  _325
REMARK  120  A    between atoms: _334  and  _336
REMARK  121  A    between atoms: _336  and  _337
REMARK  122  A    between atoms: _336  and  _339
REMARK  123  A    between atoms: _339  and  _340
REMARK  124  A    between atoms: _343  and  _345
REMARK  125  A    between atoms: _345  and  _346
REMARK  126  A    between atoms: _345  and  _348
REMARK  127  A    between atoms: _348  and  _349
REMARK  128  A    between atoms: _352  and  _354
REMARK  129  A    between atoms: _354  and  _355
REMARK  130  A    between atoms: _357  and  _359
REMARK  131  A    between atoms: _359  and  _360
REMARK  132  A    between atoms: _359  and  _362
REMARK  133  A    between atoms: _362  and  _363
REMARK  134  A    between atoms: _366  and  _368
REMARK  135  A    between atoms: _368  and  _369
REMARK  136  A    between atoms: _368  and  _371
REMARK  137  A    between atoms: _371  and  _372
REMARK  138  A    between atoms: _375  and  _377
REMARK  139  A    between atoms: _377  and  _378
REMARK  140  A    between atoms: _377  and  _380
REMARK  141  A    between atoms: _380  and  _381
REMARK  142  A    between atoms: _381  and  _382
REMARK  143  A    between atoms: _382  and  _383
REMARK  144  A    between atoms: _392  and  _394
REMARK  145  A    between atoms: _394  and  _395
REMARK  146  A    between atoms: _394  and  _397
REMARK  147  A    between atoms: _397  and  _398
REMARK  148  A    between atoms: _401  and  _403
REMARK  149  A    between atoms: _403  and  _404
REMARK  150  A    between atoms: _403  and  _406
REMARK  151  A    between atoms: _406  and  _407
REMARK  152  A    between atoms: _410  and  _412
REMARK  153  A    between atoms: _412  and  _413
REMARK  154  A    between atoms: _416  and  _418
REMARK  155  A    between atoms: _418  and  _419
REMARK  156  A    between atoms: _418  and  _421
REMARK  157  A    between atoms: _421  and  _422
REMARK  158  A    between atoms: _424  and  _426
REMARK  159  A    between atoms: _426  and  _427
REMARK  160  A    between atoms: _426  and  _429
REMARK  161  A    between atoms: _429  and  _430
REMARK  162  A    between atoms: _430  and  _431
REMARK  163  A    between atoms: _431  and  _432
REMARK  164  A    between atoms: _432  and  _433
REMARK  165  A    between atoms: _437  and  _439
REMARK  166  A    between atoms: _439  and  _440
REMARK  167  A    between atoms: _439  and  _442
REMARK  168  A    between atoms: _442  and  _443
REMARK  169  A    between atoms: _448  and  _450
REMARK  170  A    between atoms: _450  and  _451
REMARK  171  A    between atoms: _450  and  _453
REMARK  172  A    between atoms: _453  and  _454
REMARK  173  A    between atoms: _454  and  _455
REMARK  174  A    between atoms: _457  and  _459
REMARK  175  A    between atoms: _459  and  _460
REMARK  176  A    between atoms: _459  and  _462
REMARK  177  A    between atoms: _462  and  _463
REMARK  178  A    between atoms: _463  and  _464
REMARK  179  A    between atoms: _467  and  _469
REMARK  180  A    between atoms: _469  and  _470
REMARK  181  A    between atoms: _469  and  _472
REMARK  182  A    between atoms: _475  and  _477
REMARK  183  A    between atoms: _477  and  _478
REMARK  184  A    between atoms: _477  and  _480
REMARK  185  A    between atoms: _480  and  _481
REMARK  186  A    between atoms: _484  and  _486
REMARK  187  A    between atoms: _486  and  _487
REMARK  188  A    between atoms: _486  and  _489
REMARK  189  A    between atoms: _489  and  _490
REMARK  190  A    between atoms: _493  and  _495
REMARK  191  A    between atoms: _495  and  _496
REMARK  192  A    between atoms: _495  and  _498
REMARK  193  A    between atoms: _498  and  _499
REMARK  194  A    between atoms: _502  and  _504
REMARK  195  A    between atoms: _504  and  _505
REMARK  196  A    between atoms: _507  and  _509
REMARK  197  A    between atoms: _509  and  _510
REMARK  198  A    between atoms: _512  and  _514
REMARK  199  A    between atoms: _514  and  _515
REMARK  200  A    between atoms: _514  and  _517
REMARK  201  A    between atoms: _517  and  _518
REMARK  202  A    between atoms: _518  and  _519
REMARK  203  A    between atoms: _522  and  _524
REMARK  204  A    between atoms: _524  and  _525
REMARK  205  A    between atoms: _524  and  _527
REMARK  206  A    between atoms: _527  and  _528
REMARK  207  A    between atoms: _531  and  _533
REMARK  208  A    between atoms: _533  and  _534
REMARK  209  A    between atoms: _533  and  _536
REMARK  210  A    between atoms: _536  and  _537
REMARK  211  A    between atoms: _543  and  _545
REMARK  212  A    between atoms: _545  and  _546
REMARK  213  A    between atoms: _549  and  _551
REMARK  214  A    between atoms: _551  and  _552
REMARK  215  A    between atoms: _551  and  _554
REMARK  216  A    between atoms: _554  and  _555
REMARK  217  A    between atoms: _560  and  _562
REMARK  218  A    between atoms: _562  and  _563
REMARK  219  A    between atoms: _562  and  _565
REMARK  220  A    between atoms: _565  and  _566
REMARK  221  A    between atoms: _571  and  _573
REMARK  222  A    between atoms: _573  and  _574
REMARK  223  A    between atoms: _573  and  _576
REMARK  224  A    between atoms: _576  and  _577
REMARK  225  A    between atoms: _580  and  _582
REMARK  226  A    between atoms: _582  and  _583
REMARK  227  A    between atoms: _582  and  _585
REMARK  228  A    between atoms: _585  and  _586
REMARK  229  A    between atoms: _591  and  _593
REMARK  230  A    between atoms: _593  and  _594
REMARK  231  A    between atoms: _593  and  _596
REMARK  232  A    between atoms: _596  and  _597
REMARK  233  A    between atoms: _597  and  _598
REMARK  234  A    between atoms: _598  and  _599
REMARK  235  A    between atoms: _608  and  _610
REMARK  236  A    between atoms: _610  and  _611
REMARK  237  A    between atoms: _613  and  _615
REMARK  238  A    between atoms: _615  and  _616
REMARK  239  A    between atoms: _615  and  _618
REMARK  240  A    between atoms: _618  and  _619
REMARK  241  A    between atoms: _624  and  _626
REMARK  242  A    between atoms: _626  and  _627
REMARK  243  A    between atoms: _629  and  _631
REMARK  244  A    between atoms: _631  and  _632
REMARK  245  A    between atoms: _635  and  _637
REMARK  246  A    between atoms: _637  and  _638
REMARK  247  A    between atoms: _640  and  _642
REMARK  248  A    between atoms: _642  and  _643
REMARK  249  A    between atoms: _645  and  _647
REMARK  250  A    between atoms: _647  and  _648
REMARK  251  A    between atoms: _651  and  _653
REMARK  252  A    between atoms: _653  and  _654
REMARK  253  A    between atoms: _653  and  _656
REMARK  254  A    between atoms: _656  and  _657
REMARK  255  A    between atoms: _657  and  _658
REMARK  256  A    between atoms: _658  and  _659
REMARK  257  A    between atoms: _668  and  _670
REMARK  258  A    between atoms: _670  and  _671
REMARK  259  A    between atoms: _670  and  _673
REMARK  260  A    between atoms: _673  and  _674
REMARK  261  A    between atoms: _677  and  _679
REMARK  262  A    between atoms: _679  and  _680
REMARK  263  A    between atoms: _679  and  _682
REMARK  264  A    between atoms: _682  and  _683
REMARK                            x       y       z     vdW  Elec       q    Type
REMARK                         _______ _______ _______ _____ _____    ______ ____
ROOT
ATOM      1  O   HOH     1      13.476 -20.516 -16.131  0.00  0.00    +0.000 OA
ENDROOT
TORSDOF 0
REMARK  Name = ../refined-set-2016/3old/3old_pocket.pdb
REMARK  264 active torsions:
REMARK  status: ('A' for Active; 'I' for Inactive)
REMARK    1  A    between atoms: _1  and  _3
REMARK    2  A    between atoms: _3  and  _4
REMARK    3  A    between atoms: _3  and  _6
REMARK    4  A    between atoms: _6  and  _7
REMARK    5  A    between atoms: _12  and  _14
REMARK    6  A    between atoms: _14  and  _15
REMARK    7  A    between atoms: _14  and  _17
REMARK    8  A    between atoms: _17  and  _18
REMARK    9  A    between atoms: _24  and  _26
REMARK   10  A    between atoms: _26  and  _27
REMARK   11  A    between atoms: _26  and  _29
REMARK   12  A    between atoms: _29  and  _30
REMARK   13  A    between atoms: _30  and  _31
REMARK   14  A    between atoms: _37  and  _38
REMARK   15  A    between atoms: _43  and  _45
REMARK   16  A    between atoms: _45  and  _46
REMARK   17  A    between atoms: _45  and  _48
REMARK   18  A    between atoms: _48  and  _49
REMARK   19  A    between atoms: _54  and  _56
REMARK   20  A    between atoms: _56  and  _57
REMARK   21  A    between atoms: _56  and  _59
REMARK   22  A    between atoms: _62  and  _64
REMARK   23  A    between atoms: _64  and  _65
REMARK   24  A    between atoms: _64  and  _67
REMARK   25  A    between atoms: _67  and  _68
REMARK   26  A    between atoms: _72  and  _73
REMARK   27  A    between atoms: _79  and  _80
REMARK   28  A    between atoms: _85  and  _87
REMARK   29  A    between atoms: _87  and  _88
REMARK   30  A    between atoms: _87  and  _90
REMARK   31  A    between atoms: _90  and  _91
REMARK   32  A    between atoms: _101  and  _103
REMARK   33  A    between atoms: _103  and  _104
REMARK   34  A    between atoms: _103  and  _106
REMARK   35  A    between atoms: _106  and  _107
REMARK   36  A    between atoms: _117  and  _119
REMARK   37  A    between atoms: _119  and  _120
REMARK   38  A    between atoms: _119  and  _122
REMARK   39  A    between atoms: _122  and  _123
REMARK   40  A    between atoms: _123  and  _124
REMARK   41  A    between atoms: _127  and  _129
REMARK   42  A    between atoms: _129  and  _130
REMARK   43  A    between atoms: _129  and  _132
REMARK   44  A    between atoms: _132  and  _133
REMARK   45  A    between atoms: _133  and  _134
REMARK   46  A    between atoms: _134  and  _135
REMARK   47  A    between atoms: _144  and  _146
REMARK   48  A    between atoms: _146  and  _147
REMARK   49  A    between atoms: _146  and  _149
REMARK   50  A    between atoms: _149  and  _150
REMARK   51  A    between atoms: _155  and  _156
REMARK   52  A    between atoms: _158  and  _160
REMARK   53  A    between atoms: _160  and  _161
REMARK   54  A    between atoms: _160  and  _163
REMARK   55  A    between atoms: _163  and  _164
REMARK   56  A    between atoms: _164  and  _165
REMARK   57  A    between atoms: _171  and  _172
REMARK   58  A    between atoms: _177  and  _179
REMARK   59  A    between atoms: _179  and  _180
REMARK   60  A    between atoms: _179  and  _182
REMARK   61  A    between atoms: _182  and  _183
REMARK   62  A    between atoms: _186  and  _188
REMARK   63  A    between atoms: _188  and  _189
REMARK   64  A    between atoms: _192  and  _194
REMARK   65  A    between atoms: _194  and  _195
REMARK   66  A    between atoms: _194  and  _197
REMARK   67  A    between atoms: _200  and  _202
REMARK   68  A    between atoms: _202  and  _203
REMARK   69  A    between atoms: _202  and  _205
REMARK   70  A    between atoms: _205  and  _206
REMARK   71  A    between atoms: _209  and  _211
REMARK   72  A    between atoms: _211  and  _212
REMARK   73  A    between atoms: _211  and  _214
REMARK   74  A    between atoms: _214  and  _215
REMARK   75  A    between atoms: _220  and  _222
REMARK   76  A    between atoms: _222  and  _223
REMARK   77  A    between atoms: _222  and  _225
REMARK   78  A    between atoms: _225  and  _226
REMARK   79  A    between atoms: _231  and  _233
REMARK   80  A    between atoms: _233  and  _234
REMARK   81  A    between atoms: _233  and  _236
REMARK   82  A    between atoms: _236  and  _237
REMARK   83  A    between atoms: _237  and  _238
REMARK   84  A    between atoms: _240  and  _242
REMARK   85  A    between atoms: _242  and  _243
REMARK   86  A    between atoms: _242  and  _245
REMARK   87  A    between atoms: _247  and  _249
REMARK   88  A    between atoms: _249  and  _250
REMARK   89  A    between atoms: _252  and  _254
REMARK   90  A    between atoms: _254  and  _255
REMARK   91  A    between atoms: _254  and  _257
REMARK   92  A    between atoms: _257  and  _258
REMARK   93  A    between atoms: _263  and  _265
REMARK   94  A    between atoms: _265  and  _266
REMARK   95  A    between atoms: _269  and  _271
REMARK   96  A    between atoms: _271  and  _272
REMARK   97  A    between atoms: _271  and  _274
REMARK   98  A    between atoms: _277  and  _279
REMARK   99  A    between atoms: _279  and  _280
REMARK  100  A    between atoms: _279  and  _282
REMARK  101  A    between atoms: _282  and  _283
REMARK  102  A    between atoms: _286  and  _288
REMARK  103  A    between atoms: _288  and  _289
REMARK  104  A    between atoms: _288  and  _291
REMARK  105  A    between atoms: _291  and  _292
REMARK  106  A    between atoms: _295  and  _297
REMARK  107  A    between atoms: _297  and  _298
REMARK  108  A    between atoms: _297  and  _300
REMARK  109  A    between atoms: _300  and  _301
REMARK  110  A    between atoms: _306  and  _307
REMARK  111  A    between atoms: _309  and  _311
REMARK  112  A    between atoms: _311  and  _312
REMARK  113  A    between atoms: _311  and  _314
REMARK  114  A    between atoms: _317  and  _319
REMARK  115  A    between atoms: _319  and  _320
REMARK  116  A    between atoms: _319  and  _322
REMARK  117  A    between atoms: _322  and  _323
REMARK  118  A    between atoms: _323  and  _324
REMARK  119  A    between atoms: _324  and  _325
REMARK  120  A    between atoms: _334  and  _336
REMARK  121  A    between atoms: _336  and  _337
REMARK  122  A    between atoms: _336  and  _339
REMARK  123  A    between atoms: _339  and  _340
REMARK  124  A    between atoms: _343  and  _345
REMARK  125  A    between atoms: _345  and  _346
REMARK  126  A    between atoms: _345  and  _348
REMARK  127  A    between atoms: _348  and  _349
REMARK  128  A    between atoms: _352  and  _354
REMARK  129  A    between atoms: _354  and  _355
REMARK  130  A    between atoms: _357  and  _359
REMARK  131  A    between atoms: _359  and  _360
REMARK  132  A    between atoms: _359  and  _362
REMARK  133  A    between atoms: _362  and  _363
REMARK  134  A    between atoms: _366  and  _368
REMARK  135  A    between atoms: _368  and  _369
REMARK  136  A    between atoms: _368  and  _371
REMARK  137  A    between atoms: _371  and  _372
REMARK  138  A    between atoms: _375  and  _377
REMARK  139  A    between atoms: _377  and  _378
REMARK  140  A    between atoms: _377  and  _380
REMARK  141  A    between atoms: _380  and  _381
REMARK  142  A    between atoms: _381  and  _382
REMARK  143  A    between atoms: _382  and  _383
REMARK  144  A    between atoms: _392  and  _394
REMARK  145  A    between atoms: _394  and  _395
REMARK  146  A    between atoms: _394  and  _397
REMARK  147  A    between atoms: _397  and  _398
REMARK  148  A    between atoms: _401  and  _403
REMARK  149  A    between atoms: _403  and  _404
REMARK  150  A    between atoms: _403  and  _406
REMARK  151  A    between atoms: _406  and  _407
REMARK  152  A    between atoms: _410  and  _412
REMARK  153  A    between atoms: _412  and  _413
REMARK  154  A    between atoms: _416  and  _418
REMARK  155  A    between atoms: _418  and  _419
REMARK  156  A    between atoms: _418  and  _421
REMARK  157  A    between atoms: _421  and  _422
REMARK  158  A    between atoms: _424  and  _426
REMARK  159  A    between atoms: _426  and  _427
REMARK  160  A    between atoms: _426  and  _429
REMARK  161  A    between atoms: _429  and  _430
REMARK  162  A    between atoms: _430  and  _431
REMARK  163  A    between atoms: _431  and  _432
REMARK  164  A    between atoms: _432  and  _433
REMARK  165  A    between atoms: _437  and  _439
REMARK  166  A    between atoms: _439  and  _440
REMARK  167  A    between atoms: _439  and  _442
REMARK  168  A    between atoms: _442  and  _443
REMARK  169  A    between atoms: _448  and  _450
REMARK  170  A    between atoms: _450  and  _451
REMARK  171  A    between atoms: _450  and  _453
REMARK  172  A    between atoms: _453  and  _454
REMARK  173  A    between atoms: _454  and  _455
REMARK  174  A    between atoms: _457  and  _459
REMARK  175  A    between atoms: _459  and  _460
REMARK  176  A    between atoms: _459  and  _462
REMARK  177  A    between atoms: _462  and  _463
REMARK  178  A    between atoms: _463  and  _464
REMARK  179  A    between atoms: _467  and  _469
REMARK  180  A    between atoms: _469  and  _470
REMARK  181  A    between atoms: _469  and  _472
REMARK  182  A    between atoms: _475  and  _477
REMARK  183  A    between atoms: _477  and  _478
REMARK  184  A    between atoms: _477  and  _480
REMARK  185  A    between atoms: _480  and  _481
REMARK  186  A    between atoms: _484  and  _486
REMARK  187  A    between atoms: _486  and  _487
REMARK  188  A    between atoms: _486  and  _489
REMARK  189  A    between atoms: _489  and  _490
REMARK  190  A    between atoms: _493  and  _495
REMARK  191  A    between atoms: _495  and  _496
REMARK  192  A    between atoms: _495  and  _498
REMARK  193  A    between atoms: _498  and  _499
REMARK  194  A    between atoms: _502  and  _504
REMARK  195  A    between atoms: _504  and  _505
REMARK  196  A    between atoms: _507  and  _509
REMARK  197  A    between atoms: _509  and  _510
REMARK  198  A    between atoms: _512  and  _514
REMARK  199  A    between atoms: _514  and  _515
REMARK  200  A    between atoms: _514  and  _517
REMARK  201  A    between atoms: _517  and  _518
REMARK  202  A    between atoms: _518  and  _519
REMARK  203  A    between atoms: _522  and  _524
REMARK  204  A    between atoms: _524  and  _525
REMARK  205  A    between atoms: _524  and  _527
REMARK  206  A    between atoms: _527  and  _528
REMARK  207  A    between atoms: _531  and  _533
REMARK  208  A    between atoms: _533  and  _534
REMARK  209  A    between atoms: _533  and  _536
REMARK  210  A    between atoms: _536  and  _537
REMARK  211  A    between atoms: _543  and  _545
REMARK  212  A    between atoms: _545  and  _546
REMARK  213  A    between atoms: _549  and  _551
REMARK  214  A    between atoms: _551  and  _552
REMARK  215  A    between atoms: _551  and  _554
REMARK  216  A    between atoms: _554  and  _555
REMARK  217  A    between atoms: _560  and  _562
REMARK  218  A    between atoms: _562  and  _563
REMARK  219  A    between atoms: _562  and  _565
REMARK  220  A    between atoms: _565  and  _566
REMARK  221  A    between atoms: _571  and  _573
REMARK  222  A    between atoms: _573  and  _574
REMARK  223  A    between atoms: _573  and  _576
REMARK  224  A    between atoms: _576  and  _577
REMARK  225  A    between atoms: _580  and  _582
REMARK  226  A    between atoms: _582  and  _583
REMARK  227  A    between atoms: _582  and  _585
REMARK  228  A    between atoms: _585  and  _586
REMARK  229  A    between atoms: _591  and  _593
REMARK  230  A    between atoms: _593  and  _594
REMARK  231  A    between atoms: _593  and  _596
REMARK  232  A    between atoms: _596  and  _597
REMARK  233  A    between atoms: _597  and  _598
REMARK  234  A    between atoms: _598  and  _599
REMARK  235  A    between atoms: _608  and  _610
REMARK  236  A    between atoms: _610  and  _611
REMARK  237  A    between atoms: _613  and  _615
REMARK  238  A    between atoms: _615  and  _616
REMARK  239  A    between atoms: _615  and  _618
REMARK  240  A    between atoms: _618  and  _619
REMARK  241  A    between atoms: _624  and  _626
REMARK  242  A    between atoms: _626  and  _627
REMARK  243  A    between atoms: _629  and  _631
REMARK  244  A    between atoms: _631  and  _632
REMARK  245  A    between atoms: _635  and  _637
REMARK  246  A    between atoms: _637  and  _638
REMARK  247  A    between atoms: _640  and  _642
REMARK  248  A    between atoms: _642  and  _643
REMARK  249  A    between atoms: _645  and  _647
REMARK  250  A    between atoms: _647  and  _648
REMARK  251  A    between atoms: _651  and  _653
REMARK  252  A    between atoms: _653  and  _654
REMARK  253  A    between atoms: _653  and  _656
REMARK  254  A    between atoms: _656  and  _657
REMARK  255  A    between atoms: _657  and  _658
REMARK  256  A    between atoms: _658  and  _659
REMARK  257  A    between atoms: _668  and  _670
REMARK  258  A    between atoms: _670  and  _671
REMARK  259  A    between atoms: _670  and  _673
REMARK  260  A    between atoms: _673  and  _674
REMARK  261  A    between atoms: _677  and  _679
REMARK  262  A    between atoms: _679  and  _680
REMARK  263  A    between atoms: _679  and  _682
REMARK  264  A    between atoms: _682  and  _683
REMARK                            x       y       z     vdW  Elec       q    Type
REMARK                         _______ _______ _______ _____ _____    ______ ____
ROOT
ATOM      1  O   HOH     1      -5.693 -20.836 -19.529  0.00  0.00    +0.000 OA
ENDROOT
TORSDOF 0
REMARK  Name = ../refined-set-2016/3old/3old_pocket.pdb
REMARK  264 active torsions:
REMARK  status: ('A' for Active; 'I' for Inactive)
REMARK    1  A    between atoms: _1  and  _3
REMARK    2  A    between atoms: _3  and  _4
REMARK    3  A    between atoms: _3  and  _6
REMARK    4  A    between atoms: _6  and  _7
REMARK    5  A    between atoms: _12  and  _14
REMARK    6  A    between atoms: _14  and  _15
REMARK    7  A    between atoms: _14  and  _17
REMARK    8  A    between atoms: _17  and  _18
REMARK    9  A    between atoms: _24  and  _26
REMARK   10  A    between atoms: _26  and  _27
REMARK   11  A    between atoms: _26  and  _29
REMARK   12  A    between atoms: _29  and  _30
REMARK   13  A    between atoms: _30  and  _31
REMARK   14  A    between atoms: _37  and  _38
REMARK   15  A    between atoms: _43  and  _45
REMARK   16  A    between atoms: _45  and  _46
REMARK   17  A    between atoms: _45  and  _48
REMARK   18  A    between atoms: _48  and  _49
REMARK   19  A    between atoms: _54  and  _56
REMARK   20  A    between atoms: _56  and  _57
REMARK   21  A    between atoms: _56  and  _59
REMARK   22  A    between atoms: _62  and  _64
REMARK   23  A    between atoms: _64  and  _65
REMARK   24  A    between atoms: _64  and  _67
REMARK   25  A    between atoms: _67  and  _68
REMARK   26  A    between atoms: _72  and  _73
REMARK   27  A    between atoms: _79  and  _80
REMARK   28  A    between atoms: _85  and  _87
REMARK   29  A    between atoms: _87  and  _88
REMARK   30  A    between atoms: _87  and  _90
REMARK   31  A    between atoms: _90  and  _91
REMARK   32  A    between atoms: _101  and  _103
REMARK   33  A    between atoms: _103  and  _104
REMARK   34  A    between atoms: _103  and  _106
REMARK   35  A    between atoms: _106  and  _107
REMARK   36  A    between atoms: _117  and  _119
REMARK   37  A    between atoms: _119  and  _120
REMARK   38  A    between atoms: _119  and  _122
REMARK   39  A    between atoms: _122  and  _123
REMARK   40  A    between atoms: _123  and  _124
REMARK   41  A    between atoms: _127  and  _129
REMARK   42  A    between atoms: _129  and  _130
REMARK   43  A    between atoms: _129  and  _132
REMARK   44  A    between atoms: _132  and  _133
REMARK   45  A    between atoms: _133  and  _134
REMARK   46  A    between atoms: _134  and  _135
REMARK   47  A    between atoms: _144  and  _146
REMARK   48  A    between atoms: _146  and  _147
REMARK   49  A    between atoms: _146  and  _149
REMARK   50  A    between atoms: _149  and  _150
REMARK   51  A    between atoms: _155  and  _156
REMARK   52  A    between atoms: _158  and  _160
REMARK   53  A    between atoms: _160  and  _161
REMARK   54  A    between atoms: _160  and  _163
REMARK   55  A    between atoms: _163  and  _164
REMARK   56  A    between atoms: _164  and  _165
REMARK   57  A    between atoms: _171  and  _172
REMARK   58  A    between atoms: _177  and  _179
REMARK   59  A    between atoms: _179  and  _180
REMARK   60  A    between atoms: _179  and  _182
REMARK   61  A    between atoms: _182  and  _183
REMARK   62  A    between atoms: _186  and  _188
REMARK   63  A    between atoms: _188  and  _189
REMARK   64  A    between atoms: _192  and  _194
REMARK   65  A    between atoms: _194  and  _195
REMARK   66  A    between atoms: _194  and  _197
REMARK   67  A    between atoms: _200  and  _202
REMARK   68  A    between atoms: _202  and  _203
REMARK   69  A    between atoms: _202  and  _205
REMARK   70  A    between atoms: _205  and  _206
REMARK   71  A    between atoms: _209  and  _211
REMARK   72  A    between atoms: _211  and  _212
REMARK   73  A    between atoms: _211  and  _214
REMARK   74  A    between atoms: _214  and  _215
REMARK   75  A    between atoms: _220  and  _222
REMARK   76  A    between atoms: _222  and  _223
REMARK   77  A    between atoms: _222  and  _225
REMARK   78  A    between atoms: _225  and  _226
REMARK   79  A    between atoms: _231  and  _233
REMARK   80  A    between atoms: _233  and  _234
REMARK   81  A    between atoms: _233  and  _236
REMARK   82  A    between atoms: _236  and  _237
REMARK   83  A    between atoms: _237  and  _238
REMARK   84  A    between atoms: _240  and  _242
REMARK   85  A    between atoms: _242  and  _243
REMARK   86  A    between atoms: _242  and  _245
REMARK   87  A    between atoms: _247  and  _249
REMARK   88  A    between atoms: _249  and  _250
REMARK   89  A    between atoms: _252  and  _254
REMARK   90  A    between atoms: _254  and  _255
REMARK   91  A    between atoms: _254  and  _257
REMARK   92  A    between atoms: _257  and  _258
REMARK   93  A    between atoms: _263  and  _265
REMARK   94  A    between atoms: _265  and  _266
REMARK   95  A    between atoms: _269  and  _271
REMARK   96  A    between atoms: _271  and  _272
REMARK   97  A    between atoms: _271  and  _274
REMARK   98  A    between atoms: _277  and  _279
REMARK   99  A    between atoms: _279  and  _280
REMARK  100  A    between atoms: _279  and  _282
REMARK  101  A    between atoms: _282  and  _283
REMARK  102  A    between atoms: _286  and  _288
REMARK  103  A    between atoms: _288  and  _289
REMARK  104  A    between atoms: _288  and  _291
REMARK  105  A    between atoms: _291  and  _292
REMARK  106  A    between atoms: _295  and  _297
REMARK  107  A    between atoms: _297  and  _298
REMARK  108  A    between atoms: _297  and  _300
REMARK  109  A    between atoms: _300  and  _301
REMARK  110  A    between atoms: _306  and  _307
REMARK  111  A    between atoms: _309  and  _311
REMARK  112  A    between atoms: _311  and  _312
REMARK  113  A    between atoms: _311  and  _314
REMARK  114  A    between atoms: _317  and  _319
REMARK  115  A    between atoms: _319  and  _320
REMARK  116  A    between atoms: _319  and  _322
REMARK  117  A    between atoms: _322  and  _323
REMARK  118  A    between atoms: _323  and  _324
REMARK  119  A    between atoms: _324  and  _325
REMARK  120  A    between atoms: _334  and  _336
REMARK  121  A    between atoms: _336  and  _337
REMARK  122  A    between atoms: _336  and  _339
REMARK  123  A    between atoms: _339  and  _340
REMARK  124  A    between atoms: _343  and  _345
REMARK  125  A    between atoms: _345  and  _346
REMARK  126  A    between atoms: _345  and  _348
REMARK  127  A    between atoms: _348  and  _349
REMARK  128  A    between atoms: _352  and  _354
REMARK  129  A    between atoms: _354  and  _355
REMARK  130  A    between atoms: _357  and  _359
REMARK  131  A    between atoms: _359  and  _360
REMARK  132  A    between atoms: _359  and  _362
REMARK  133  A    between atoms: _362  and  _363
REMARK  134  A    between atoms: _366  and  _368
REMARK  135  A    between atoms: _368  and  _369
REMARK  136  A    between atoms: _368  and  _371
REMARK  137  A    between atoms: _371  and  _372
REMARK  138  A    between atoms: _375  and  _377
REMARK  139  A    between atoms: _377  and  _378
REMARK  140  A    between atoms: _377  and  _380
REMARK  141  A    between atoms: _380  and  _381
REMARK  142  A    between atoms: _381  and  _382
REMARK  143  A    between atoms: _382  and  _383
REMARK  144  A    between atoms: _392  and  _394
REMARK  145  A    between atoms: _394  and  _395
REMARK  146  A    between atoms: _394  and  _397
REMARK  147  A    between atoms: _397  and  _398
REMARK  148  A    between atoms: _401  and  _403
REMARK  149  A    between atoms: _403  and  _404
REMARK  150  A    between atoms: _403  and  _406
REMARK  151  A    between atoms: _406  and  _407
REMARK  152  A    between atoms: _410  and  _412
REMARK  153  A    between atoms: _412  and  _413
REMARK  154  A    between atoms: _416  and  _418
REMARK  155  A    between atoms: _418  and  _419
REMARK  156  A    between atoms: _418  and  _421
REMARK  157  A    between atoms: _421  and  _422
REMARK  158  A    between atoms: _424  and  _426
REMARK  159  A    between atoms: _426  and  _427
REMARK  160  A    between atoms: _426  and  _429
REMARK  161  A    between atoms: _429  and  _430
REMARK  162  A    between atoms: _430  and  _431
REMARK  163  A    between atoms: _431  and  _432
REMARK  164  A    between atoms: _432  and  _433
REMARK  165  A    between atoms: _437  and  _439
REMARK  166  A    between atoms: _439  and  _440
REMARK  167  A    between atoms: _439  and  _442
REMARK  168  A    between atoms: _442  and  _443
REMARK  169  A    between atoms: _448  and  _450
REMARK  170  A    between atoms: _450  and  _451
REMARK  171  A    between atoms: _450  and  _453
REMARK  172  A    between atoms: _453  and  _454
REMARK  173  A    between atoms: _454  and  _455
REMARK  174  A    between atoms: _457  and  _459
REMARK  175  A    between atoms: _459  and  _460
REMARK  176  A    between atoms: _459  and  _462
REMARK  177  A    between atoms: _462  and  _463
REMARK  178  A    between atoms: _463  and  _464
REMARK  179  A    between atoms: _467  and  _469
REMARK  180  A    between atoms: _469  and  _470
REMARK  181  A    between atoms: _469  and  _472
REMARK  182  A    between atoms: _475  and  _477
REMARK  183  A    between atoms: _477  and  _478
REMARK  184  A    between atoms: _477  and  _480
REMARK  185  A    between atoms: _480  and  _481
REMARK  186  A    between atoms: _484  and  _486
REMARK  187  A    between atoms: _486  and  _487
REMARK  188  A    between atoms: _486  and  _489
REMARK  189  A    between atoms: _489  and  _490
REMARK  190  A    between atoms: _493  and  _495
REMARK  191  A    between atoms: _495  and  _496
REMARK  192  A    between atoms: _495  and  _498
REMARK  193  A    between atoms: _498  and  _499
REMARK  194  A    between atoms: _502  and  _504
REMARK  195  A    between atoms: _504  and  _505
REMARK  196  A    between atoms: _507  and  _509
REMARK  197  A    between atoms: _509  and  _510
REMARK  198  A    between atoms: _512  and  _514
REMARK  199  A    between atoms: _514  and  _515
REMARK  200  A    between atoms: _514  and  _517
REMARK  201  A    between atoms: _517  and  _518
REMARK  202  A    between atoms: _518  and  _519
REMARK  203  A    between atoms: _522  and  _524
REMARK  204  A    between atoms: _524  and  _525
REMARK  205  A    between atoms: _524  and  _527
REMARK  206  A    between atoms: _527  and  _528
REMARK  207  A    between atoms: _531  and  _533
REMARK  208  A    between atoms: _533  and  _534
REMARK  209  A    between atoms: _533  and  _536
REMARK  210  A    between atoms: _536  and  _537
REMARK  211  A    between atoms: _543  and  _545
REMARK  212  A    between atoms: _545  and  _546
REMARK  213  A    between atoms: _549  and  _551
REMARK  214  A    between atoms: _551  and  _552
REMARK  215  A    between atoms: _551  and  _554
REMARK  216  A    between atoms: _554  and  _555
REMARK  217  A    between atoms: _560  and  _562
REMARK  218  A    between atoms: _562  and  _563
REMARK  219  A    between atoms: _562  and  _565
REMARK  220  A    between atoms: _565  and  _566
REMARK  221  A    between atoms: _571  and  _573
REMARK  222  A    between atoms: _573  and  _574
REMARK  223  A    between atoms: _573  and  _576
REMARK  224  A    between atoms: _576  and  _577
REMARK  225  A    between atoms: _580  and  _582
REMARK  226  A    between atoms: _582  and  _583
REMARK  227  A    between atoms: _582  and  _585
REMARK  228  A    between atoms: _585  and  _586
REMARK  229  A    between atoms: _591  and  _593
REMARK  230  A    between atoms: _593  and  _594
REMARK  231  A    between atoms: _593  and  _596
REMARK  232  A    between atoms: _596  and  _597
REMARK  233  A    between atoms: _597  and  _598
REMARK  234  A    between atoms: _598  and  _599
REMARK  235  A    between atoms: _608  and  _610
REMARK  236  A    between atoms: _610  and  _611
REMARK  237  A    between atoms: _613  and  _615
REMARK  238  A    between atoms: _615  and  _616
REMARK  239  A    between atoms: _615  and  _618
REMARK  240  A    between atoms: _618  and  _619
REMARK  241  A    between atoms: _624  and  _626
REMARK  242  A    between atoms: _626  and  _627
REMARK  243  A    between atoms: _629  and  _631
REMARK  244  A    between atoms: _631  and  _632
REMARK  245  A    between atoms: _635  and  _637
REMARK  246  A    between atoms: _637  and  _638
REMARK  247  A    between atoms: _640  and  _642
REMARK  248  A    between atoms: _642  and  _643
REMARK  249  A    between atoms: _645  and  _647
REMARK  250  A    between atoms: _647  and  _648
REMARK  251  A    between atoms: _651  and  _653
REMARK  252  A    between atoms: _653  and  _654
REMARK  253  A    between atoms: _653  and  _656
REMARK  254  A    between atoms: _656  and  _657
REMARK  255  A    between atoms: _657  and  _658
REMARK  256  A    between atoms: _658  and  _659
REMARK  257  A    between atoms: _668  and  _670
REMARK  258  A    between atoms: _670  and  _671
REMARK  259  A    between atoms: _670  and  _673
REMARK  260  A    between atoms: _673  and  _674
REMARK  261  A    between atoms: _677  and  _679
REMARK  262  A    between atoms: _679  and  _680
REMARK  263  A    between atoms: _679  and  _682
REMARK  264  A    between atoms: _682  and  _683
REMARK                            x       y       z     vdW  Elec       q    Type
REMARK                         _______ _______ _______ _____ _____    ______ ____
ROOT
ATOM      1  O   HOH     1      15.042  -9.461 -16.303  0.00  0.00    +0.000 OA
ENDROOT
TORSDOF 0
REMARK  Name = ../refined-set-2016/3old/3old_pocket.pdb
REMARK  264 active torsions:
REMARK  status: ('A' for Active; 'I' for Inactive)
REMARK    1  A    between atoms: _1  and  _3
REMARK    2  A    between atoms: _3  and  _4
REMARK    3  A    between atoms: _3  and  _6
REMARK    4  A    between atoms: _6  and  _7
REMARK    5  A    between atoms: _12  and  _14
REMARK    6  A    between atoms: _14  and  _15
REMARK    7  A    between atoms: _14  and  _17
REMARK    8  A    between atoms: _17  and  _18
REMARK    9  A    between atoms: _24  and  _26
REMARK   10  A    between atoms: _26  and  _27
REMARK   11  A    between atoms: _26  and  _29
REMARK   12  A    between atoms: _29  and  _30
REMARK   13  A    between atoms: _30  and  _31
REMARK   14  A    between atoms: _37  and  _38
REMARK   15  A    between atoms: _43  and  _45
REMARK   16  A    between atoms: _45  and  _46
REMARK   17  A    between atoms: _45  and  _48
REMARK   18  A    between atoms: _48  and  _49
REMARK   19  A    between atoms: _54  and  _56
REMARK   20  A    between atoms: _56  and  _57
REMARK   21  A    between atoms: _56  and  _59
REMARK   22  A    between atoms: _62  and  _64
REMARK   23  A    between atoms: _64  and  _65
REMARK   24  A    between atoms: _64  and  _67
REMARK   25  A    between atoms: _67  and  _68
REMARK   26  A    between atoms: _72  and  _73
REMARK   27  A    between atoms: _79  and  _80
REMARK   28  A    between atoms: _85  and  _87
REMARK   29  A    between atoms: _87  and  _88
REMARK   30  A    between atoms: _87  and  _90
REMARK   31  A    between atoms: _90  and  _91
REMARK   32  A    between atoms: _101  and  _103
REMARK   33  A    between atoms: _103  and  _104
REMARK   34  A    between atoms: _103  and  _106
REMARK   35  A    between atoms: _106  and  _107
REMARK   36  A    between atoms: _117  and  _119
REMARK   37  A    between atoms: _119  and  _120
REMARK   38  A    between atoms: _119  and  _122
REMARK   39  A    between atoms: _122  and  _123
REMARK   40  A    between atoms: _123  and  _124
REMARK   41  A    between atoms: _127  and  _129
REMARK   42  A    between atoms: _129  and  _130
REMARK   43  A    between atoms: _129  and  _132
REMARK   44  A    between atoms: _132  and  _133
REMARK   45  A    between atoms: _133  and  _134
REMARK   46  A    between atoms: _134  and  _135
REMARK   47  A    between atoms: _144  and  _146
REMARK   48  A    between atoms: _146  and  _147
REMARK   49  A    between atoms: _146  and  _149
REMARK   50  A    between atoms: _149  and  _150
REMARK   51  A    between atoms: _155  and  _156
REMARK   52  A    between atoms: _158  and  _160
REMARK   53  A    between atoms: _160  and  _161
REMARK   54  A    between atoms: _160  and  _163
REMARK   55  A    between atoms: _163  and  _164
REMARK   56  A    between atoms: _164  and  _165
REMARK   57  A    between atoms: _171  and  _172
REMARK   58  A    between atoms: _177  and  _179
REMARK   59  A    between atoms: _179  and  _180
REMARK   60  A    between atoms: _179  and  _182
REMARK   61  A    between atoms: _182  and  _183
REMARK   62  A    between atoms: _186  and  _188
REMARK   63  A    between atoms: _188  and  _189
REMARK   64  A    between atoms: _192  and  _194
REMARK   65  A    between atoms: _194  and  _195
REMARK   66  A    between atoms: _194  and  _197
REMARK   67  A    between atoms: _200  and  _202
REMARK   68  A    between atoms: _202  and  _203
REMARK   69  A    between atoms: _202  and  _205
REMARK   70  A    between atoms: _205  and  _206
REMARK   71  A    between atoms: _209  and  _211
REMARK   72  A    between atoms: _211  and  _212
REMARK   73  A    between atoms: _211  and  _214
REMARK   74  A    between atoms: _214  and  _215
REMARK   75  A    between atoms: _220  and  _222
REMARK   76  A    between atoms: _222  and  _223
REMARK   77  A    between atoms: _222  and  _225
REMARK   78  A    between atoms: _225  and  _226
REMARK   79  A    between atoms: _231  and  _233
REMARK   80  A    between atoms: _233  and  _234
REMARK   81  A    between atoms: _233  and  _236
REMARK   82  A    between atoms: _236  and  _237
REMARK   83  A    between atoms: _237  and  _238
REMARK   84  A    between atoms: _240  and  _242
REMARK   85  A    between atoms: _242  and  _243
REMARK   86  A    between atoms: _242  and  _245
REMARK   87  A    between atoms: _247  and  _249
REMARK   88  A    between atoms: _249  and  _250
REMARK   89  A    between atoms: _252  and  _254
REMARK   90  A    between atoms: _254  and  _255
REMARK   91  A    between atoms: _254  and  _257
REMARK   92  A    between atoms: _257  and  _258
REMARK   93  A    between atoms: _263  and  _265
REMARK   94  A    between atoms: _265  and  _266
REMARK   95  A    between atoms: _269  and  _271
REMARK   96  A    between atoms: _271  and  _272
REMARK   97  A    between atoms: _271  and  _274
REMARK   98  A    between atoms: _277  and  _279
REMARK   99  A    between atoms: _279  and  _280
REMARK  100  A    between atoms: _279  and  _282
REMARK  101  A    between atoms: _282  and  _283
REMARK  102  A    between atoms: _286  and  _288
REMARK  103  A    between atoms: _288  and  _289
REMARK  104  A    between atoms: _288  and  _291
REMARK  105  A    between atoms: _291  and  _292
REMARK  106  A    between atoms: _295  and  _297
REMARK  107  A    between atoms: _297  and  _298
REMARK  108  A    between atoms: _297  and  _300
REMARK  109  A    between atoms: _300  and  _301
REMARK  110  A    between atoms: _306  and  _307
REMARK  111  A    between atoms: _309  and  _311
REMARK  112  A    between atoms: _311  and  _312
REMARK  113  A    between atoms: _311  and  _314
REMARK  114  A    between atoms: _317  and  _319
REMARK  115  A    between atoms: _319  and  _320
REMARK  116  A    between atoms: _319  and  _322
REMARK  117  A    between atoms: _322  and  _323
REMARK  118  A    between atoms: _323  and  _324
REMARK  119  A    between atoms: _324  and  _325
REMARK  120  A    between atoms: _334  and  _336
REMARK  121  A    between atoms: _336  and  _337
REMARK  122  A    between atoms: _336  and  _339
REMARK  123  A    between atoms: _339  and  _340
REMARK  124  A    between atoms: _343  and  _345
REMARK  125  A    between atoms: _345  and  _346
REMARK  126  A    between atoms: _345  and  _348
REMARK  127  A    between atoms: _348  and  _349
REMARK  128  A    between atoms: _352  and  _354
REMARK  129  A    between atoms: _354  and  _355
REMARK  130  A    between atoms: _357  and  _359
REMARK  131  A    between atoms: _359  and  _360
REMARK  132  A    between atoms: _359  and  _362
REMARK  133  A    between atoms: _362  and  _363
REMARK  134  A    between atoms: _366  and  _368
REMARK  135  A    between atoms: _368  and  _369
REMARK  136  A    between atoms: _368  and  _371
REMARK  137  A    between atoms: _371  and  _372
REMARK  138  A    between atoms: _375  and  _377
REMARK  139  A    between atoms: _377  and  _378
REMARK  140  A    between atoms: _377  and  _380
REMARK  141  A    between atoms: _380  and  _381
REMARK  142  A    between atoms: _381  and  _382
REMARK  143  A    between atoms: _382  and  _383
REMARK  144  A    between atoms: _392  and  _394
REMARK  145  A    between atoms: _394  and  _395
REMARK  146  A    between atoms: _394  and  _397
REMARK  147  A    between atoms: _397  and  _398
REMARK  148  A    between atoms: _401  and  _403
REMARK  149  A    between atoms: _403  and  _404
REMARK  150  A    between atoms: _403  and  _406
REMARK  151  A    between atoms: _406  and  _407
REMARK  152  A    between atoms: _410  and  _412
REMARK  153  A    between atoms: _412  and  _413
REMARK  154  A    between atoms: _416  and  _418
REMARK  155  A    between atoms: _418  and  _419
REMARK  156  A    between atoms: _418  and  _421
REMARK  157  A    between atoms: _421  and  _422
REMARK  158  A    between atoms: _424  and  _426
REMARK  159  A    between atoms: _426  and  _427
REMARK  160  A    between atoms: _426  and  _429
REMARK  161  A    between atoms: _429  and  _430
REMARK  162  A    between atoms: _430  and  _431
REMARK  163  A    between atoms: _431  and  _432
REMARK  164  A    between atoms: _432  and  _433
REMARK  165  A    between atoms: _437  and  _439
REMARK  166  A    between atoms: _439  and  _440
REMARK  167  A    between atoms: _439  and  _442
REMARK  168  A    between atoms: _442  and  _443
REMARK  169  A    between atoms: _448  and  _450
REMARK  170  A    between atoms: _450  and  _451
REMARK  171  A    between atoms: _450  and  _453
REMARK  172  A    between atoms: _453  and  _454
REMARK  173  A    between atoms: _454  and  _455
REMARK  174  A    between atoms: _457  and  _459
REMARK  175  A    between atoms: _459  and  _460
REMARK  176  A    between atoms: _459  and  _462
REMARK  177  A    between atoms: _462  and  _463
REMARK  178  A    between atoms: _463  and  _464
REMARK  179  A    between atoms: _467  and  _469
REMARK  180  A    between atoms: _469  and  _470
REMARK  181  A    between atoms: _469  and  _472
REMARK  182  A    between atoms: _475  and  _477
REMARK  183  A    between atoms: _477  and  _478
REMARK  184  A    between atoms: _477  and  _480
REMARK  185  A    between atoms: _480  and  _481
REMARK  186  A    between atoms: _484  and  _486
REMARK  187  A    between atoms: _486  and  _487
REMARK  188  A    between atoms: _486  and  _489
REMARK  189  A    between atoms: _489  and  _490
REMARK  190  A    between atoms: _493  and  _495
REMARK  191  A    between atoms: _495  and  _496
REMARK  192  A    between atoms: _495  and  _498
REMARK  193  A    between atoms: _498  and  _499
REMARK  194  A    between atoms: _502  and  _504
REMARK  195  A    between atoms: _504  and  _505
REMARK  196  A    between atoms: _507  and  _509
REMARK  197  A    between atoms: _509  and  _510
REMARK  198  A    between atoms: _512  and  _514
REMARK  199  A    between atoms: _514  and  _515
REMARK  200  A    between atoms: _514  and  _517
REMARK  201  A    between atoms: _517  and  _518
REMARK  202  A    between atoms: _518  and  _519
REMARK  203  A    between atoms: _522  and  _524
REMARK  204  A    between atoms: _524  and  _525
REMARK  205  A    between atoms: _524  and  _527
REMARK  206  A    between atoms: _527  and  _528
REMARK  207  A    between atoms: _531  and  _533
REMARK  208  A    between atoms: _533  and  _534
REMARK  209  A    between atoms: _533  and  _536
REMARK  210  A    between atoms: _536  and  _537
REMARK  211  A    between atoms: _543  and  _545
REMARK  212  A    between atoms: _545  and  _546
REMARK  213  A    between atoms: _549  and  _551
REMARK  214  A    between atoms: _551  and  _552
REMARK  215  A    between atoms: _551  and  _554
REMARK  216  A    between atoms: _554  and  _555
REMARK  217  A    between atoms: _560  and  _562
REMARK  218  A    between atoms: _562  and  _563
REMARK  219  A    between atoms: _562  and  _565
REMARK  220  A    between atoms: _565  and  _566
REMARK  221  A    between atoms: _571  and  _573
REMARK  222  A    between atoms: _573  and  _574
REMARK  223  A    between atoms: _573  and  _576
REMARK  224  A    between atoms: _576  and  _577
REMARK  225  A    between atoms: _580  and  _582
REMARK  226  A    between atoms: _582  and  _583
REMARK  227  A    between atoms: _582  and  _585
REMARK  228  A    between atoms: _585  and  _586
REMARK  229  A    between atoms: _591  and  _593
REMARK  230  A    between atoms: _593  and  _594
REMARK  231  A    between atoms: _593  and  _596
REMARK  232  A    between atoms: _596  and  _597
REMARK  233  A    between atoms: _597  and  _598
REMARK  234  A    between atoms: _598  and  _599
REMARK  235  A    between atoms: _608  and  _610
REMARK  236  A    between atoms: _610  and  _611
REMARK  237  A    between atoms: _613  and  _615
REMARK  238  A    between atoms: _615  and  _616
REMARK  239  A    between atoms: _615  and  _618
REMARK  240  A    between atoms: _618  and  _619
REMARK  241  A    between atoms: _624  and  _626
REMARK  242  A    between atoms: _626  and  _627
REMARK  243  A    between atoms: _629  and  _631
REMARK  244  A    between atoms: _631  and  _632
REMARK  245  A    between atoms: _635  and  _637
REMARK  246  A    between atoms: _637  and  _638
REMARK  247  A    between atoms: _640  and  _642
REMARK  248  A    between atoms: _642  and  _643
REMARK  249  A    between atoms: _645  and  _647
REMARK  250  A    between atoms: _647  and  _648
REMARK  251  A    between atoms: _651  and  _653
REMARK  252  A    between atoms: _653  and  _654
REMARK  253  A    between atoms: _653  and  _656
REMARK  254  A    between atoms: _656  and  _657
REMARK  255  A    between atoms: _657  and  _658
REMARK  256  A    between atoms: _658  and  _659
REMARK  257  A    between atoms: _668  and  _670
REMARK  258  A    between atoms: _670  and  _671
REMARK  259  A    between atoms: _670  and  _673
REMARK  260  A    between atoms: _673  and  _674
REMARK  261  A    between atoms: _677  and  _679
REMARK  262  A    between atoms: _679  and  _680
REMARK  263  A    between atoms: _679  and  _682
REMARK  264  A    between atoms: _682  and  _683
REMARK                            x       y       z     vdW  Elec       q    Type
REMARK                         _______ _______ _______ _____ _____    ______ ____
ROOT
ATOM      1  O   HOH     1      12.651 -26.479 -21.207  0.00  0.00    +0.000 OA
ENDROOT
TORSDOF 0
REMARK  Name = ../refined-set-2016/3old/3old_pocket.pdb
REMARK  264 active torsions:
REMARK  status: ('A' for Active; 'I' for Inactive)
REMARK    1  A    between atoms: _1  and  _3
REMARK    2  A    between atoms: _3  and  _4
REMARK    3  A    between atoms: _3  and  _6
REMARK    4  A    between atoms: _6  and  _7
REMARK    5  A    between atoms: _12  and  _14
REMARK    6  A    between atoms: _14  and  _15
REMARK    7  A    between atoms: _14  and  _17
REMARK    8  A    between atoms: _17  and  _18
REMARK    9  A    between atoms: _24  and  _26
REMARK   10  A    between atoms: _26  and  _27
REMARK   11  A    between atoms: _26  and  _29
REMARK   12  A    between atoms: _29  and  _30
REMARK   13  A    between atoms: _30  and  _31
REMARK   14  A    between atoms: _37  and  _38
REMARK   15  A    between atoms: _43  and  _45
REMARK   16  A    between atoms: _45  and  _46
REMARK   17  A    between atoms: _45  and  _48
REMARK   18  A    between atoms: _48  and  _49
REMARK   19  A    between atoms: _54  and  _56
REMARK   20  A    between atoms: _56  and  _57
REMARK   21  A    between atoms: _56  and  _59
REMARK   22  A    between atoms: _62  and  _64
REMARK   23  A    between atoms: _64  and  _65
REMARK   24  A    between atoms: _64  and  _67
REMARK   25  A    between atoms: _67  and  _68
REMARK   26  A    between atoms: _72  and  _73
REMARK   27  A    between atoms: _79  and  _80
REMARK   28  A    between atoms: _85  and  _87
REMARK   29  A    between atoms: _87  and  _88
REMARK   30  A    between atoms: _87  and  _90
REMARK   31  A    between atoms: _90  and  _91
REMARK   32  A    between atoms: _101  and  _103
REMARK   33  A    between atoms: _103  and  _104
REMARK   34  A    between atoms: _103  and  _106
REMARK   35  A    between atoms: _106  and  _107
REMARK   36  A    between atoms: _117  and  _119
REMARK   37  A    between atoms: _119  and  _120
REMARK   38  A    between atoms: _119  and  _122
REMARK   39  A    between atoms: _122  and  _123
REMARK   40  A    between atoms: _123  and  _124
REMARK   41  A    between atoms: _127  and  _129
REMARK   42  A    between atoms: _129  and  _130
REMARK   43  A    between atoms: _129  and  _132
REMARK   44  A    between atoms: _132  and  _133
REMARK   45  A    between atoms: _133  and  _134
REMARK   46  A    between atoms: _134  and  _135
REMARK   47  A    between atoms: _144  and  _146
REMARK   48  A    between atoms: _146  and  _147
REMARK   49  A    between atoms: _146  and  _149
REMARK   50  A    between atoms: _149  and  _150
REMARK   51  A    between atoms: _155  and  _156
REMARK   52  A    between atoms: _158  and  _160
REMARK   53  A    between atoms: _160  and  _161
REMARK   54  A    between atoms: _160  and  _163
REMARK   55  A    between atoms: _163  and  _164
REMARK   56  A    between atoms: _164  and  _165
REMARK   57  A    between atoms: _171  and  _172
REMARK   58  A    between atoms: _177  and  _179
REMARK   59  A    between atoms: _179  and  _180
REMARK   60  A    between atoms: _179  and  _182
REMARK   61  A    between atoms: _182  and  _183
REMARK   62  A    between atoms: _186  and  _188
REMARK   63  A    between atoms: _188  and  _189
REMARK   64  A    between atoms: _192  and  _194
REMARK   65  A    between atoms: _194  and  _195
REMARK   66  A    between atoms: _194  and  _197
REMARK   67  A    between atoms: _200  and  _202
REMARK   68  A    between atoms: _202  and  _203
REMARK   69  A    between atoms: _202  and  _205
REMARK   70  A    between atoms: _205  and  _206
REMARK   71  A    between atoms: _209  and  _211
REMARK   72  A    between atoms: _211  and  _212
REMARK   73  A    between atoms: _211  and  _214
REMARK   74  A    between atoms: _214  and  _215
REMARK   75  A    between atoms: _220  and  _222
REMARK   76  A    between atoms: _222  and  _223
REMARK   77  A    between atoms: _222  and  _225
REMARK   78  A    between atoms: _225  and  _226
REMARK   79  A    between atoms: _231  and  _233
REMARK   80  A    between atoms: _233  and  _234
REMARK   81  A    between atoms: _233  and  _236
REMARK   82  A    between atoms: _236  and  _237
REMARK   83  A    between atoms: _237  and  _238
REMARK   84  A    between atoms: _240  and  _242
REMARK   85  A    between atoms: _242  and  _243
REMARK   86  A    between atoms: _242  and  _245
REMARK   87  A    between atoms: _247  and  _249
REMARK   88  A    between atoms: _249  and  _250
REMARK   89  A    between atoms: _252  and  _254
REMARK   90  A    between atoms: _254  and  _255
REMARK   91  A    between atoms: _254  and  _257
REMARK   92  A    between atoms: _257  and  _258
REMARK   93  A    between atoms: _263  and  _265
REMARK   94  A    between atoms: _265  and  _266
REMARK   95  A    between atoms: _269  and  _271
REMARK   96  A    between atoms: _271  and  _272
REMARK   97  A    between atoms: _271  and  _274
REMARK   98  A    between atoms: _277  and  _279
REMARK   99  A    between atoms: _279  and  _280
REMARK  100  A    between atoms: _279  and  _282
REMARK  101  A    between atoms: _282  and  _283
REMARK  102  A    between atoms: _286  and  _288
REMARK  103  A    between atoms: _288  and  _289
REMARK  104  A    between atoms: _288  and  _291
REMARK  105  A    between atoms: _291  and  _292
REMARK  106  A    between atoms: _295  and  _297
REMARK  107  A    between atoms: _297  and  _298
REMARK  108  A    between atoms: _297  and  _300
REMARK  109  A    between atoms: _300  and  _301
REMARK  110  A    between atoms: _306  and  _307
REMARK  111  A    between atoms: _309  and  _311
REMARK  112  A    between atoms: _311  and  _312
REMARK  113  A    between atoms: _311  and  _314
REMARK  114  A    between atoms: _317  and  _319
REMARK  115  A    between atoms: _319  and  _320
REMARK  116  A    between atoms: _319  and  _322
REMARK  117  A    between atoms: _322  and  _323
REMARK  118  A    between atoms: _323  and  _324
REMARK  119  A    between atoms: _324  and  _325
REMARK  120  A    between atoms: _334  and  _336
REMARK  121  A    between atoms: _336  and  _337
REMARK  122  A    between atoms: _336  and  _339
REMARK  123  A    between atoms: _339  and  _340
REMARK  124  A    between atoms: _343  and  _345
REMARK  125  A    between atoms: _345  and  _346
REMARK  126  A    between atoms: _345  and  _348
REMARK  127  A    between atoms: _348  and  _349
REMARK  128  A    between atoms: _352  and  _354
REMARK  129  A    between atoms: _354  and  _355
REMARK  130  A    between atoms: _357  and  _359
REMARK  131  A    between atoms: _359  and  _360
REMARK  132  A    between atoms: _359  and  _362
REMARK  133  A    between atoms: _362  and  _363
REMARK  134  A    between atoms: _366  and  _368
REMARK  135  A    between atoms: _368  and  _369
REMARK  136  A    between atoms: _368  and  _371
REMARK  137  A    between atoms: _371  and  _372
REMARK  138  A    between atoms: _375  and  _377
REMARK  139  A    between atoms: _377  and  _378
REMARK  140  A    between atoms: _377  and  _380
REMARK  141  A    between atoms: _380  and  _381
REMARK  142  A    between atoms: _381  and  _382
REMARK  143  A    between atoms: _382  and  _383
REMARK  144  A    between atoms: _392  and  _394
REMARK  145  A    between atoms: _394  and  _395
REMARK  146  A    between atoms: _394  and  _397
REMARK  147  A    between atoms: _397  and  _398
REMARK  148  A    between atoms: _401  and  _403
REMARK  149  A    between atoms: _403  and  _404
REMARK  150  A    between atoms: _403  and  _406
REMARK  151  A    between atoms: _406  and  _407
REMARK  152  A    between atoms: _410  and  _412
REMARK  153  A    between atoms: _412  and  _413
REMARK  154  A    between atoms: _416  and  _418
REMARK  155  A    between atoms: _418  and  _419
REMARK  156  A    between atoms: _418  and  _421
REMARK  157  A    between atoms: _421  and  _422
REMARK  158  A    between atoms: _424  and  _426
REMARK  159  A    between atoms: _426  and  _427
REMARK  160  A    between atoms: _426  and  _429
REMARK  161  A    between atoms: _429  and  _430
REMARK  162  A    between atoms: _430  and  _431
REMARK  163  A    between atoms: _431  and  _432
REMARK  164  A    between atoms: _432  and  _433
REMARK  165  A    between atoms: _437  and  _439
REMARK  166  A    between atoms: _439  and  _440
REMARK  167  A    between atoms: _439  and  _442
REMARK  168  A    between atoms: _442  and  _443
REMARK  169  A    between atoms: _448  and  _450
REMARK  170  A    between atoms: _450  and  _451
REMARK  171  A    between atoms: _450  and  _453
REMARK  172  A    between atoms: _453  and  _454
REMARK  173  A    between atoms: _454  and  _455
REMARK  174  A    between atoms: _457  and  _459
REMARK  175  A    between atoms: _459  and  _460
REMARK  176  A    between atoms: _459  and  _462
REMARK  177  A    between atoms: _462  and  _463
REMARK  178  A    between atoms: _463  and  _464
REMARK  179  A    between atoms: _467  and  _469
REMARK  180  A    between atoms: _469  and  _470
REMARK  181  A    between atoms: _469  and  _472
REMARK  182  A    between atoms: _475  and  _477
REMARK  183  A    between atoms: _477  and  _478
REMARK  184  A    between atoms: _477  and  _480
REMARK  185  A    between atoms: _480  and  _481
REMARK  186  A    between atoms: _484  and  _486
REMARK  187  A    between atoms: _486  and  _487
REMARK  188  A    between atoms: _486  and  _489
REMARK  189  A    between atoms: _489  and  _490
REMARK  190  A    between atoms: _493  and  _495
REMARK  191  A    between atoms: _495  and  _496
REMARK  192  A    between atoms: _495  and  _498
REMARK  193  A    between atoms: _498  and  _499
REMARK  194  A    between atoms: _502  and  _504
REMARK  195  A    between atoms: _504  and  _505
REMARK  196  A    between atoms: _507  and  _509
REMARK  197  A    between atoms: _509  and  _510
REMARK  198  A    between atoms: _512  and  _514
REMARK  199  A    between atoms: _514  and  _515
REMARK  200  A    between atoms: _514  and  _517
REMARK  201  A    between atoms: _517  and  _518
REMARK  202  A    between atoms: _518  and  _519
REMARK  203  A    between atoms: _522  and  _524
REMARK  204  A    between atoms: _524  and  _525
REMARK  205  A    between atoms: _524  and  _527
REMARK  206  A    between atoms: _527  and  _528
REMARK  207  A    between atoms: _531  and  _533
REMARK  208  A    between atoms: _533  and  _534
REMARK  209  A    between atoms: _533  and  _536
REMARK  210  A    between atoms: _536  and  _537
REMARK  211  A    between atoms: _543  and  _545
REMARK  212  A    between atoms: _545  and  _546
REMARK  213  A    between atoms: _549  and  _551
REMARK  214  A    between atoms: _551  and  _552
REMARK  215  A    between atoms: _551  and  _554
REMARK  216  A    between atoms: _554  and  _555
REMARK  217  A    between atoms: _560  and  _562
REMARK  218  A    between atoms: _562  and  _563
REMARK  219  A    between atoms: _562  and  _565
REMARK  220  A    between atoms: _565  and  _566
REMARK  221  A    between atoms: _571  and  _573
REMARK  222  A    between atoms: _573  and  _574
REMARK  223  A    between atoms: _573  and  _576
REMARK  224  A    between atoms: _576  and  _577
REMARK  225  A    between atoms: _580  and  _582
REMARK  226  A    between atoms: _582  and  _583
REMARK  227  A    between atoms: _582  and  _585
REMARK  228  A    between atoms: _585  and  _586
REMARK  229  A    between atoms: _591  and  _593
REMARK  230  A    between atoms: _593  and  _594
REMARK  231  A    between atoms: _593  and  _596
REMARK  232  A    between atoms: _596  and  _597
REMARK  233  A    between atoms: _597  and  _598
REMARK  234  A    between atoms: _598  and  _599
REMARK  235  A    between atoms: _608  and  _610
REMARK  236  A    between atoms: _610  and  _611
REMARK  237  A    between atoms: _613  and  _615
REMARK  238  A    between atoms: _615  and  _616
REMARK  239  A    between atoms: _615  and  _618
REMARK  240  A    between atoms: _618  and  _619
REMARK  241  A    between atoms: _624  and  _626
REMARK  242  A    between atoms: _626  and  _627
REMARK  243  A    between atoms: _629  and  _631
REMARK  244  A    between atoms: _631  and  _632
REMARK  245  A    between atoms: _635  and  _637
REMARK  246  A    between atoms: _637  and  _638
REMARK  247  A    between atoms: _640  and  _642
REMARK  248  A    between atoms: _642  and  _643
REMARK  249  A    between atoms: _645  and  _647
REMARK  250  A    between atoms: _647  and  _648
REMARK  251  A    between atoms: _651  and  _653
REMARK  252  A    between atoms: _653  and  _654
REMARK  253  A    between atoms: _653  and  _656
REMARK  254  A    between atoms: _656  and  _657
REMARK  255  A    between atoms: _657  and  _658
REMARK  256  A    between atoms: _658  and  _659
REMARK  257  A    between atoms: _668  and  _670
REMARK  258  A    between atoms: _670  and  _671
REMARK  259  A    between atoms: _670  and  _673
REMARK  260  A    between atoms: _673  and  _674
REMARK  261  A    between atoms: _677  and  _679
REMARK  262  A    between atoms: _679  and  _680
REMARK  263  A    between atoms: _679  and  _682
REMARK  264  A    between atoms: _682  and  _683
REMARK                            x       y       z     vdW  Elec       q    Type
REMARK                         _______ _______ _______ _____ _____    ______ ____
ROOT
ATOM      1  O   HOH     1      18.161 -10.428 -22.140  0.00  0.00    +0.000 OA
ENDROOT
TORSDOF 0
REMARK  Name = ../refined-set-2016/3old/3old_pocket.pdb
REMARK  264 active torsions:
REMARK  status: ('A' for Active; 'I' for Inactive)
REMARK    1  A    between atoms: _1  and  _3
REMARK    2  A    between atoms: _3  and  _4
REMARK    3  A    between atoms: _3  and  _6
REMARK    4  A    between atoms: _6  and  _7
REMARK    5  A    between atoms: _12  and  _14
REMARK    6  A    between atoms: _14  and  _15
REMARK    7  A    between atoms: _14  and  _17
REMARK    8  A    between atoms: _17  and  _18
REMARK    9  A    between atoms: _24  and  _26
REMARK   10  A    between atoms: _26  and  _27
REMARK   11  A    between atoms: _26  and  _29
REMARK   12  A    between atoms: _29  and  _30
REMARK   13  A    between atoms: _30  and  _31
REMARK   14  A    between atoms: _37  and  _38
REMARK   15  A    between atoms: _43  and  _45
REMARK   16  A    between atoms: _45  and  _46
REMARK   17  A    between atoms: _45  and  _48
REMARK   18  A    between atoms: _48  and  _49
REMARK   19  A    between atoms: _54  and  _56
REMARK   20  A    between atoms: _56  and  _57
REMARK   21  A    between atoms: _56  and  _59
REMARK   22  A    between atoms: _62  and  _64
REMARK   23  A    between atoms: _64  and  _65
REMARK   24  A    between atoms: _64  and  _67
REMARK   25  A    between atoms: _67  and  _68
REMARK   26  A    between atoms: _72  and  _73
REMARK   27  A    between atoms: _79  and  _80
REMARK   28  A    between atoms: _85  and  _87
REMARK   29  A    between atoms: _87  and  _88
REMARK   30  A    between atoms: _87  and  _90
REMARK   31  A    between atoms: _90  and  _91
REMARK   32  A    between atoms: _101  and  _103
REMARK   33  A    between atoms: _103  and  _104
REMARK   34  A    between atoms: _103  and  _106
REMARK   35  A    between atoms: _106  and  _107
REMARK   36  A    between atoms: _117  and  _119
REMARK   37  A    between atoms: _119  and  _120
REMARK   38  A    between atoms: _119  and  _122
REMARK   39  A    between atoms: _122  and  _123
REMARK   40  A    between atoms: _123  and  _124
REMARK   41  A    between atoms: _127  and  _129
REMARK   42  A    between atoms: _129  and  _130
REMARK   43  A    between atoms: _129  and  _132
REMARK   44  A    between atoms: _132  and  _133
REMARK   45  A    between atoms: _133  and  _134
REMARK   46  A    between atoms: _134  and  _135
REMARK   47  A    between atoms: _144  and  _146
REMARK   48  A    between atoms: _146  and  _147
REMARK   49  A    between atoms: _146  and  _149
REMARK   50  A    between atoms: _149  and  _150
REMARK   51  A    between atoms: _155  and  _156
REMARK   52  A    between atoms: _158  and  _160
REMARK   53  A    between atoms: _160  and  _161
REMARK   54  A    between atoms: _160  and  _163
REMARK   55  A    between atoms: _163  and  _164
REMARK   56  A    between atoms: _164  and  _165
REMARK   57  A    between atoms: _171  and  _172
REMARK   58  A    between atoms: _177  and  _179
REMARK   59  A    between atoms: _179  and  _180
REMARK   60  A    between atoms: _179  and  _182
REMARK   61  A    between atoms: _182  and  _183
REMARK   62  A    between atoms: _186  and  _188
REMARK   63  A    between atoms: _188  and  _189
REMARK   64  A    between atoms: _192  and  _194
REMARK   65  A    between atoms: _194  and  _195
REMARK   66  A    between atoms: _194  and  _197
REMARK   67  A    between atoms: _200  and  _202
REMARK   68  A    between atoms: _202  and  _203
REMARK   69  A    between atoms: _202  and  _205
REMARK   70  A    between atoms: _205  and  _206
REMARK   71  A    between atoms: _209  and  _211
REMARK   72  A    between atoms: _211  and  _212
REMARK   73  A    between atoms: _211  and  _214
REMARK   74  A    between atoms: _214  and  _215
REMARK   75  A    between atoms: _220  and  _222
REMARK   76  A    between atoms: _222  and  _223
REMARK   77  A    between atoms: _222  and  _225
REMARK   78  A    between atoms: _225  and  _226
REMARK   79  A    between atoms: _231  and  _233
REMARK   80  A    between atoms: _233  and  _234
REMARK   81  A    between atoms: _233  and  _236
REMARK   82  A    between atoms: _236  and  _237
REMARK   83  A    between atoms: _237  and  _238
REMARK   84  A    between atoms: _240  and  _242
REMARK   85  A    between atoms: _242  and  _243
REMARK   86  A    between atoms: _242  and  _245
REMARK   87  A    between atoms: _247  and  _249
REMARK   88  A    between atoms: _249  and  _250
REMARK   89  A    between atoms: _252  and  _254
REMARK   90  A    between atoms: _254  and  _255
REMARK   91  A    between atoms: _254  and  _257
REMARK   92  A    between atoms: _257  and  _258
REMARK   93  A    between atoms: _263  and  _265
REMARK   94  A    between atoms: _265  and  _266
REMARK   95  A    between atoms: _269  and  _271
REMARK   96  A    between atoms: _271  and  _272
REMARK   97  A    between atoms: _271  and  _274
REMARK   98  A    between atoms: _277  and  _279
REMARK   99  A    between atoms: _279  and  _280
REMARK  100  A    between atoms: _279  and  _282
REMARK  101  A    between atoms: _282  and  _283
REMARK  102  A    between atoms: _286  and  _288
REMARK  103  A    between atoms: _288  and  _289
REMARK  104  A    between atoms: _288  and  _291
REMARK  105  A    between atoms: _291  and  _292
REMARK  106  A    between atoms: _295  and  _297
REMARK  107  A    between atoms: _297  and  _298
REMARK  108  A    between atoms: _297  and  _300
REMARK  109  A    between atoms: _300  and  _301
REMARK  110  A    between atoms: _306  and  _307
REMARK  111  A    between atoms: _309  and  _311
REMARK  112  A    between atoms: _311  and  _312
REMARK  113  A    between atoms: _311  and  _314
REMARK  114  A    between atoms: _317  and  _319
REMARK  115  A    between atoms: _319  and  _320
REMARK  116  A    between atoms: _319  and  _322
REMARK  117  A    between atoms: _322  and  _323
REMARK  118  A    between atoms: _323  and  _324
REMARK  119  A    between atoms: _324  and  _325
REMARK  120  A    between atoms: _334  and  _336
REMARK  121  A    between atoms: _336  and  _337
REMARK  122  A    between atoms: _336  and  _339
REMARK  123  A    between atoms: _339  and  _340
REMARK  124  A    between atoms: _343  and  _345
REMARK  125  A    between atoms: _345  and  _346
REMARK  126  A    between atoms: _345  and  _348
REMARK  127  A    between atoms: _348  and  _349
REMARK  128  A    between atoms: _352  and  _354
REMARK  129  A    between atoms: _354  and  _355
REMARK  130  A    between atoms: _357  and  _359
REMARK  131  A    between atoms: _359  and  _360
REMARK  132  A    between atoms: _359  and  _362
REMARK  133  A    between atoms: _362  and  _363
REMARK  134  A    between atoms: _366  and  _368
REMARK  135  A    between atoms: _368  and  _369
REMARK  136  A    between atoms: _368  and  _371
REMARK  137  A    between atoms: _371  and  _372
REMARK  138  A    between atoms: _375  and  _377
REMARK  139  A    between atoms: _377  and  _378
REMARK  140  A    between atoms: _377  and  _380
REMARK  141  A    between atoms: _380  and  _381
REMARK  142  A    between atoms: _381  and  _382
REMARK  143  A    between atoms: _382  and  _383
REMARK  144  A    between atoms: _392  and  _394
REMARK  145  A    between atoms: _394  and  _395
REMARK  146  A    between atoms: _394  and  _397
REMARK  147  A    between atoms: _397  and  _398
REMARK  148  A    between atoms: _401  and  _403
REMARK  149  A    between atoms: _403  and  _404
REMARK  150  A    between atoms: _403  and  _406
REMARK  151  A    between atoms: _406  and  _407
REMARK  152  A    between atoms: _410  and  _412
REMARK  153  A    between atoms: _412  and  _413
REMARK  154  A    between atoms: _416  and  _418
REMARK  155  A    between atoms: _418  and  _419
REMARK  156  A    between atoms: _418  and  _421
REMARK  157  A    between atoms: _421  and  _422
REMARK  158  A    between atoms: _424  and  _426
REMARK  159  A    between atoms: _426  and  _427
REMARK  160  A    between atoms: _426  and  _429
REMARK  161  A    between atoms: _429  and  _430
REMARK  162  A    between atoms: _430  and  _431
REMARK  163  A    between atoms: _431  and  _432
REMARK  164  A    between atoms: _432  and  _433
REMARK  165  A    between atoms: _437  and  _439
REMARK  166  A    between atoms: _439  and  _440
REMARK  167  A    between atoms: _439  and  _442
REMARK  168  A    between atoms: _442  and  _443
REMARK  169  A    between atoms: _448  and  _450
REMARK  170  A    between atoms: _450  and  _451
REMARK  171  A    between atoms: _450  and  _453
REMARK  172  A    between atoms: _453  and  _454
REMARK  173  A    between atoms: _454  and  _455
REMARK  174  A    between atoms: _457  and  _459
REMARK  175  A    between atoms: _459  and  _460
REMARK  176  A    between atoms: _459  and  _462
REMARK  177  A    between atoms: _462  and  _463
REMARK  178  A    between atoms: _463  and  _464
REMARK  179  A    between atoms: _467  and  _469
REMARK  180  A    between atoms: _469  and  _470
REMARK  181  A    between atoms: _469  and  _472
REMARK  182  A    between atoms: _475  and  _477
REMARK  183  A    between atoms: _477  and  _478
REMARK  184  A    between atoms: _477  and  _480
REMARK  185  A    between atoms: _480  and  _481
REMARK  186  A    between atoms: _484  and  _486
REMARK  187  A    between atoms: _486  and  _487
REMARK  188  A    between atoms: _486  and  _489
REMARK  189  A    between atoms: _489  and  _490
REMARK  190  A    between atoms: _493  and  _495
REMARK  191  A    between atoms: _495  and  _496
REMARK  192  A    between atoms: _495  and  _498
REMARK  193  A    between atoms: _498  and  _499
REMARK  194  A    between atoms: _502  and  _504
REMARK  195  A    between atoms: _504  and  _505
REMARK  196  A    between atoms: _507  and  _509
REMARK  197  A    between atoms: _509  and  _510
REMARK  198  A    between atoms: _512  and  _514
REMARK  199  A    between atoms: _514  and  _515
REMARK  200  A    between atoms: _514  and  _517
REMARK  201  A    between atoms: _517  and  _518
REMARK  202  A    between atoms: _518  and  _519
REMARK  203  A    between atoms: _522  and  _524
REMARK  204  A    between atoms: _524  and  _525
REMARK  205  A    between atoms: _524  and  _527
REMARK  206  A    between atoms: _527  and  _528
REMARK  207  A    between atoms: _531  and  _533
REMARK  208  A    between atoms: _533  and  _534
REMARK  209  A    between atoms: _533  and  _536
REMARK  210  A    between atoms: _536  and  _537
REMARK  211  A    between atoms: _543  and  _545
REMARK  212  A    between atoms: _545  and  _546
REMARK  213  A    between atoms: _549  and  _551
REMARK  214  A    between atoms: _551  and  _552
REMARK  215  A    between atoms: _551  and  _554
REMARK  216  A    between atoms: _554  and  _555
REMARK  217  A    between atoms: _560  and  _562
REMARK  218  A    between atoms: _562  and  _563
REMARK  219  A    between atoms: _562  and  _565
REMARK  220  A    between atoms: _565  and  _566
REMARK  221  A    between atoms: _571  and  _573
REMARK  222  A    between atoms: _573  and  _574
REMARK  223  A    between atoms: _573  and  _576
REMARK  224  A    between atoms: _576  and  _577
REMARK  225  A    between atoms: _580  and  _582
REMARK  226  A    between atoms: _582  and  _583
REMARK  227  A    between atoms: _582  and  _585
REMARK  228  A    between atoms: _585  and  _586
REMARK  229  A    between atoms: _591  and  _593
REMARK  230  A    between atoms: _593  and  _594
REMARK  231  A    between atoms: _593  and  _596
REMARK  232  A    between atoms: _596  and  _597
REMARK  233  A    between atoms: _597  and  _598
REMARK  234  A    between atoms: _598  and  _599
REMARK  235  A    between atoms: _608  and  _610
REMARK  236  A    between atoms: _610  and  _611
REMARK  237  A    between atoms: _613  and  _615
REMARK  238  A    between atoms: _615  and  _616
REMARK  239  A    between atoms: _615  and  _618
REMARK  240  A    between atoms: _618  and  _619
REMARK  241  A    between atoms: _624  and  _626
REMARK  242  A    between atoms: _626  and  _627
REMARK  243  A    between atoms: _629  and  _631
REMARK  244  A    between atoms: _631  and  _632
REMARK  245  A    between atoms: _635  and  _637
REMARK  246  A    between atoms: _637  and  _638
REMARK  247  A    between atoms: _640  and  _642
REMARK  248  A    between atoms: _642  and  _643
REMARK  249  A    between atoms: _645  and  _647
REMARK  250  A    between atoms: _647  and  _648
REMARK  251  A    between atoms: _651  and  _653
REMARK  252  A    between atoms: _653  and  _654
REMARK  253  A    between atoms: _653  and  _656
REMARK  254  A    between atoms: _656  and  _657
REMARK  255  A    between atoms: _657  and  _658
REMARK  256  A    between atoms: _658  and  _659
REMARK  257  A    between atoms: _668  and  _670
REMARK  258  A    between atoms: _670  and  _671
REMARK  259  A    between atoms: _670  and  _673
REMARK  260  A    between atoms: _673  and  _674
REMARK  261  A    between atoms: _677  and  _679
REMARK  262  A    between atoms: _679  and  _680
REMARK  263  A    between atoms: _679  and  _682
REMARK  264  A    between atoms: _682  and  _683
REMARK                            x       y       z     vdW  Elec       q    Type
REMARK                         _______ _______ _______ _____ _____    ______ ____
ROOT
ATOM      1  O   HOH     1      -1.275 -24.930 -20.761  0.00  0.00    +0.000 OA
ENDROOT
TORSDOF 0
REMARK  Name = ../refined-set-2016/3old/3old_pocket.pdb
REMARK  264 active torsions:
REMARK  status: ('A' for Active; 'I' for Inactive)
REMARK    1  A    between atoms: _1  and  _3
REMARK    2  A    between atoms: _3  and  _4
REMARK    3  A    between atoms: _3  and  _6
REMARK    4  A    between atoms: _6  and  _7
REMARK    5  A    between atoms: _12  and  _14
REMARK    6  A    between atoms: _14  and  _15
REMARK    7  A    between atoms: _14  and  _17
REMARK    8  A    between atoms: _17  and  _18
REMARK    9  A    between atoms: _24  and  _26
REMARK   10  A    between atoms: _26  and  _27
REMARK   11  A    between atoms: _26  and  _29
REMARK   12  A    between atoms: _29  and  _30
REMARK   13  A    between atoms: _30  and  _31
REMARK   14  A    between atoms: _37  and  _38
REMARK   15  A    between atoms: _43  and  _45
REMARK   16  A    between atoms: _45  and  _46
REMARK   17  A    between atoms: _45  and  _48
REMARK   18  A    between atoms: _48  and  _49
REMARK   19  A    between atoms: _54  and  _56
REMARK   20  A    between atoms: _56  and  _57
REMARK   21  A    between atoms: _56  and  _59
REMARK   22  A    between atoms: _62  and  _64
REMARK   23  A    between atoms: _64  and  _65
REMARK   24  A    between atoms: _64  and  _67
REMARK   25  A    between atoms: _67  and  _68
REMARK   26  A    between atoms: _72  and  _73
REMARK   27  A    between atoms: _79  and  _80
REMARK   28  A    between atoms: _85  and  _87
REMARK   29  A    between atoms: _87  and  _88
REMARK   30  A    between atoms: _87  and  _90
REMARK   31  A    between atoms: _90  and  _91
REMARK   32  A    between atoms: _101  and  _103
REMARK   33  A    between atoms: _103  and  _104
REMARK   34  A    between atoms: _103  and  _106
REMARK   35  A    between atoms: _106  and  _107
REMARK   36  A    between atoms: _117  and  _119
REMARK   37  A    between atoms: _119  and  _120
REMARK   38  A    between atoms: _119  and  _122
REMARK   39  A    between atoms: _122  and  _123
REMARK   40  A    between atoms: _123  and  _124
REMARK   41  A    between atoms: _127  and  _129
REMARK   42  A    between atoms: _129  and  _130
REMARK   43  A    between atoms: _129  and  _132
REMARK   44  A    between atoms: _132  and  _133
REMARK   45  A    between atoms: _133  and  _134
REMARK   46  A    between atoms: _134  and  _135
REMARK   47  A    between atoms: _144  and  _146
REMARK   48  A    between atoms: _146  and  _147
REMARK   49  A    between atoms: _146  and  _149
REMARK   50  A    between atoms: _149  and  _150
REMARK   51  A    between atoms: _155  and  _156
REMARK   52  A    between atoms: _158  and  _160
REMARK   53  A    between atoms: _160  and  _161
REMARK   54  A    between atoms: _160  and  _163
REMARK   55  A    between atoms: _163  and  _164
REMARK   56  A    between atoms: _164  and  _165
REMARK   57  A    between atoms: _171  and  _172
REMARK   58  A    between atoms: _177  and  _179
REMARK   59  A    between atoms: _179  and  _180
REMARK   60  A    between atoms: _179  and  _182
REMARK   61  A    between atoms: _182  and  _183
REMARK   62  A    between atoms: _186  and  _188
REMARK   63  A    between atoms: _188  and  _189
REMARK   64  A    between atoms: _192  and  _194
REMARK   65  A    between atoms: _194  and  _195
REMARK   66  A    between atoms: _194  and  _197
REMARK   67  A    between atoms: _200  and  _202
REMARK   68  A    between atoms: _202  and  _203
REMARK   69  A    between atoms: _202  and  _205
REMARK   70  A    between atoms: _205  and  _206
REMARK   71  A    between atoms: _209  and  _211
REMARK   72  A    between atoms: _211  and  _212
REMARK   73  A    between atoms: _211  and  _214
REMARK   74  A    between atoms: _214  and  _215
REMARK   75  A    between atoms: _220  and  _222
REMARK   76  A    between atoms: _222  and  _223
REMARK   77  A    between atoms: _222  and  _225
REMARK   78  A    between atoms: _225  and  _226
REMARK   79  A    between atoms: _231  and  _233
REMARK   80  A    between atoms: _233  and  _234
REMARK   81  A    between atoms: _233  and  _236
REMARK   82  A    between atoms: _236  and  _237
REMARK   83  A    between atoms: _237  and  _238
REMARK   84  A    between atoms: _240  and  _242
REMARK   85  A    between atoms: _242  and  _243
REMARK   86  A    between atoms: _242  and  _245
REMARK   87  A    between atoms: _247  and  _249
REMARK   88  A    between atoms: _249  and  _250
REMARK   89  A    between atoms: _252  and  _254
REMARK   90  A    between atoms: _254  and  _255
REMARK   91  A    between atoms: _254  and  _257
REMARK   92  A    between atoms: _257  and  _258
REMARK   93  A    between atoms: _263  and  _265
REMARK   94  A    between atoms: _265  and  _266
REMARK   95  A    between atoms: _269  and  _271
REMARK   96  A    between atoms: _271  and  _272
REMARK   97  A    between atoms: _271  and  _274
REMARK   98  A    between atoms: _277  and  _279
REMARK   99  A    between atoms: _279  and  _280
REMARK  100  A    between atoms: _279  and  _282
REMARK  101  A    between atoms: _282  and  _283
REMARK  102  A    between atoms: _286  and  _288
REMARK  103  A    between atoms: _288  and  _289
REMARK  104  A    between atoms: _288  and  _291
REMARK  105  A    between atoms: _291  and  _292
REMARK  106  A    between atoms: _295  and  _297
REMARK  107  A    between atoms: _297  and  _298
REMARK  108  A    between atoms: _297  and  _300
REMARK  109  A    between atoms: _300  and  _301
REMARK  110  A    between atoms: _306  and  _307
REMARK  111  A    between atoms: _309  and  _311
REMARK  112  A    between atoms: _311  and  _312
REMARK  113  A    between atoms: _311  and  _314
REMARK  114  A    between atoms: _317  and  _319
REMARK  115  A    between atoms: _319  and  _320
REMARK  116  A    between atoms: _319  and  _322
REMARK  117  A    between atoms: _322  and  _323
REMARK  118  A    between atoms: _323  and  _324
REMARK  119  A    between atoms: _324  and  _325
REMARK  120  A    between atoms: _334  and  _336
REMARK  121  A    between atoms: _336  and  _337
REMARK  122  A    between atoms: _336  and  _339
REMARK  123  A    between atoms: _339  and  _340
REMARK  124  A    between atoms: _343  and  _345
REMARK  125  A    between atoms: _345  and  _346
REMARK  126  A    between atoms: _345  and  _348
REMARK  127  A    between atoms: _348  and  _349
REMARK  128  A    between atoms: _352  and  _354
REMARK  129  A    between atoms: _354  and  _355
REMARK  130  A    between atoms: _357  and  _359
REMARK  131  A    between atoms: _359  and  _360
REMARK  132  A    between atoms: _359  and  _362
REMARK  133  A    between atoms: _362  and  _363
REMARK  134  A    between atoms: _366  and  _368
REMARK  135  A    between atoms: _368  and  _369
REMARK  136  A    between atoms: _368  and  _371
REMARK  137  A    between atoms: _371  and  _372
REMARK  138  A    between atoms: _375  and  _377
REMARK  139  A    between atoms: _377  and  _378
REMARK  140  A    between atoms: _377  and  _380
REMARK  141  A    between atoms: _380  and  _381
REMARK  142  A    between atoms: _381  and  _382
REMARK  143  A    between atoms: _382  and  _383
REMARK  144  A    between atoms: _392  and  _394
REMARK  145  A    between atoms: _394  and  _395
REMARK  146  A    between atoms: _394  and  _397
REMARK  147  A    between atoms: _397  and  _398
REMARK  148  A    between atoms: _401  and  _403
REMARK  149  A    between atoms: _403  and  _404
REMARK  150  A    between atoms: _403  and  _406
REMARK  151  A    between atoms: _406  and  _407
REMARK  152  A    between atoms: _410  and  _412
REMARK  153  A    between atoms: _412  and  _413
REMARK  154  A    between atoms: _416  and  _418
REMARK  155  A    between atoms: _418  and  _419
REMARK  156  A    between atoms: _418  and  _421
REMARK  157  A    between atoms: _421  and  _422
REMARK  158  A    between atoms: _424  and  _426
REMARK  159  A    between atoms: _426  and  _427
REMARK  160  A    between atoms: _426  and  _429
REMARK  161  A    between atoms: _429  and  _430
REMARK  162  A    between atoms: _430  and  _431
REMARK  163  A    between atoms: _431  and  _432
REMARK  164  A    between atoms: _432  and  _433
REMARK  165  A    between atoms: _437  and  _439
REMARK  166  A    between atoms: _439  and  _440
REMARK  167  A    between atoms: _439  and  _442
REMARK  168  A    between atoms: _442  and  _443
REMARK  169  A    between atoms: _448  and  _450
REMARK  170  A    between atoms: _450  and  _451
REMARK  171  A    between atoms: _450  and  _453
REMARK  172  A    between atoms: _453  and  _454
REMARK  173  A    between atoms: _454  and  _455
REMARK  174  A    between atoms: _457  and  _459
REMARK  175  A    between atoms: _459  and  _460
REMARK  176  A    between atoms: _459  and  _462
REMARK  177  A    between atoms: _462  and  _463
REMARK  178  A    between atoms: _463  and  _464
REMARK  179  A    between atoms: _467  and  _469
REMARK  180  A    between atoms: _469  and  _470
REMARK  181  A    between atoms: _469  and  _472
REMARK  182  A    between atoms: _475  and  _477
REMARK  183  A    between atoms: _477  and  _478
REMARK  184  A    between atoms: _477  and  _480
REMARK  185  A    between atoms: _480  and  _481
REMARK  186  A    between atoms: _484  and  _486
REMARK  187  A    between atoms: _486  and  _487
REMARK  188  A    between atoms: _486  and  _489
REMARK  189  A    between atoms: _489  and  _490
REMARK  190  A    between atoms: _493  and  _495
REMARK  191  A    between atoms: _495  and  _496
REMARK  192  A    between atoms: _495  and  _498
REMARK  193  A    between atoms: _498  and  _499
REMARK  194  A    between atoms: _502  and  _504
REMARK  195  A    between atoms: _504  and  _505
REMARK  196  A    between atoms: _507  and  _509
REMARK  197  A    between atoms: _509  and  _510
REMARK  198  A    between atoms: _512  and  _514
REMARK  199  A    between atoms: _514  and  _515
REMARK  200  A    between atoms: _514  and  _517
REMARK  201  A    between atoms: _517  and  _518
REMARK  202  A    between atoms: _518  and  _519
REMARK  203  A    between atoms: _522  and  _524
REMARK  204  A    between atoms: _524  and  _525
REMARK  205  A    between atoms: _524  and  _527
REMARK  206  A    between atoms: _527  and  _528
REMARK  207  A    between atoms: _531  and  _533
REMARK  208  A    between atoms: _533  and  _534
REMARK  209  A    between atoms: _533  and  _536
REMARK  210  A    between atoms: _536  and  _537
REMARK  211  A    between atoms: _543  and  _545
REMARK  212  A    between atoms: _545  and  _546
REMARK  213  A    between atoms: _549  and  _551
REMARK  214  A    between atoms: _551  and  _552
REMARK  215  A    between atoms: _551  and  _554
REMARK  216  A    between atoms: _554  and  _555
REMARK  217  A    between atoms: _560  and  _562
REMARK  218  A    between atoms: _562  and  _563
REMARK  219  A    between atoms: _562  and  _565
REMARK  220  A    between atoms: _565  and  _566
REMARK  221  A    between atoms: _571  and  _573
REMARK  222  A    between atoms: _573  and  _574
REMARK  223  A    between atoms: _573  and  _576
REMARK  224  A    between atoms: _576  and  _577
REMARK  225  A    between atoms: _580  and  _582
REMARK  226  A    between atoms: _582  and  _583
REMARK  227  A    between atoms: _582  and  _585
REMARK  228  A    between atoms: _585  and  _586
REMARK  229  A    between atoms: _591  and  _593
REMARK  230  A    between atoms: _593  and  _594
REMARK  231  A    between atoms: _593  and  _596
REMARK  232  A    between atoms: _596  and  _597
REMARK  233  A    between atoms: _597  and  _598
REMARK  234  A    between atoms: _598  and  _599
REMARK  235  A    between atoms: _608  and  _610
REMARK  236  A    between atoms: _610  and  _611
REMARK  237  A    between atoms: _613  and  _615
REMARK  238  A    between atoms: _615  and  _616
REMARK  239  A    between atoms: _615  and  _618
REMARK  240  A    between atoms: _618  and  _619
REMARK  241  A    between atoms: _624  and  _626
REMARK  242  A    between atoms: _626  and  _627
REMARK  243  A    between atoms: _629  and  _631
REMARK  244  A    between atoms: _631  and  _632
REMARK  245  A    between atoms: _635  and  _637
REMARK  246  A    between atoms: _637  and  _638
REMARK  247  A    between atoms: _640  and  _642
REMARK  248  A    between atoms: _642  and  _643
REMARK  249  A    between atoms: _645  and  _647
REMARK  250  A    between atoms: _647  and  _648
REMARK  251  A    between atoms: _651  and  _653
REMARK  252  A    between atoms: _653  and  _654
REMARK  253  A    between atoms: _653  and  _656
REMARK  254  A    between atoms: _656  and  _657
REMARK  255  A    between atoms: _657  and  _658
REMARK  256  A    between atoms: _658  and  _659
REMARK  257  A    between atoms: _668  and  _670
REMARK  258  A    between atoms: _670  and  _671
REMARK  259  A    between atoms: _670  and  _673
REMARK  260  A    between atoms: _673  and  _674
REMARK  261  A    between atoms: _677  and  _679
REMARK  262  A    between atoms: _679  and  _680
REMARK  263  A    between atoms: _679  and  _682
REMARK  264  A    between atoms: _682  and  _683
REMARK                            x       y       z     vdW  Elec       q    Type
REMARK                         _______ _______ _______ _____ _____    ______ ____
ROOT
ATOM      1  O   HOH     1       6.897 -13.054 -21.449  0.00  0.00    +0.000 OA
ENDROOT
TORSDOF 0
REMARK  Name = ../refined-set-2016/3old/3old_pocket.pdb
REMARK  264 active torsions:
REMARK  status: ('A' for Active; 'I' for Inactive)
REMARK    1  A    between atoms: _1  and  _3
REMARK    2  A    between atoms: _3  and  _4
REMARK    3  A    between atoms: _3  and  _6
REMARK    4  A    between atoms: _6  and  _7
REMARK    5  A    between atoms: _12  and  _14
REMARK    6  A    between atoms: _14  and  _15
REMARK    7  A    between atoms: _14  and  _17
REMARK    8  A    between atoms: _17  and  _18
REMARK    9  A    between atoms: _24  and  _26
REMARK   10  A    between atoms: _26  and  _27
REMARK   11  A    between atoms: _26  and  _29
REMARK   12  A    between atoms: _29  and  _30
REMARK   13  A    between atoms: _30  and  _31
REMARK   14  A    between atoms: _37  and  _38
REMARK   15  A    between atoms: _43  and  _45
REMARK   16  A    between atoms: _45  and  _46
REMARK   17  A    between atoms: _45  and  _48
REMARK   18  A    between atoms: _48  and  _49
REMARK   19  A    between atoms: _54  and  _56
REMARK   20  A    between atoms: _56  and  _57
REMARK   21  A    between atoms: _56  and  _59
REMARK   22  A    between atoms: _62  and  _64
REMARK   23  A    between atoms: _64  and  _65
REMARK   24  A    between atoms: _64  and  _67
REMARK   25  A    between atoms: _67  and  _68
REMARK   26  A    between atoms: _72  and  _73
REMARK   27  A    between atoms: _79  and  _80
REMARK   28  A    between atoms: _85  and  _87
REMARK   29  A    between atoms: _87  and  _88
REMARK   30  A    between atoms: _87  and  _90
REMARK   31  A    between atoms: _90  and  _91
REMARK   32  A    between atoms: _101  and  _103
REMARK   33  A    between atoms: _103  and  _104
REMARK   34  A    between atoms: _103  and  _106
REMARK   35  A    between atoms: _106  and  _107
REMARK   36  A    between atoms: _117  and  _119
REMARK   37  A    between atoms: _119  and  _120
REMARK   38  A    between atoms: _119  and  _122
REMARK   39  A    between atoms: _122  and  _123
REMARK   40  A    between atoms: _123  and  _124
REMARK   41  A    between atoms: _127  and  _129
REMARK   42  A    between atoms: _129  and  _130
REMARK   43  A    between atoms: _129  and  _132
REMARK   44  A    between atoms: _132  and  _133
REMARK   45  A    between atoms: _133  and  _134
REMARK   46  A    between atoms: _134  and  _135
REMARK   47  A    between atoms: _144  and  _146
REMARK   48  A    between atoms: _146  and  _147
REMARK   49  A    between atoms: _146  and  _149
REMARK   50  A    between atoms: _149  and  _150
REMARK   51  A    between atoms: _155  and  _156
REMARK   52  A    between atoms: _158  and  _160
REMARK   53  A    between atoms: _160  and  _161
REMARK   54  A    between atoms: _160  and  _163
REMARK   55  A    between atoms: _163  and  _164
REMARK   56  A    between atoms: _164  and  _165
REMARK   57  A    between atoms: _171  and  _172
REMARK   58  A    between atoms: _177  and  _179
REMARK   59  A    between atoms: _179  and  _180
REMARK   60  A    between atoms: _179  and  _182
REMARK   61  A    between atoms: _182  and  _183
REMARK   62  A    between atoms: _186  and  _188
REMARK   63  A    between atoms: _188  and  _189
REMARK   64  A    between atoms: _192  and  _194
REMARK   65  A    between atoms: _194  and  _195
REMARK   66  A    between atoms: _194  and  _197
REMARK   67  A    between atoms: _200  and  _202
REMARK   68  A    between atoms: _202  and  _203
REMARK   69  A    between atoms: _202  and  _205
REMARK   70  A    between atoms: _205  and  _206
REMARK   71  A    between atoms: _209  and  _211
REMARK   72  A    between atoms: _211  and  _212
REMARK   73  A    between atoms: _211  and  _214
REMARK   74  A    between atoms: _214  and  _215
REMARK   75  A    between atoms: _220  and  _222
REMARK   76  A    between atoms: _222  and  _223
REMARK   77  A    between atoms: _222  and  _225
REMARK   78  A    between atoms: _225  and  _226
REMARK   79  A    between atoms: _231  and  _233
REMARK   80  A    between atoms: _233  and  _234
REMARK   81  A    between atoms: _233  and  _236
REMARK   82  A    between atoms: _236  and  _237
REMARK   83  A    between atoms: _237  and  _238
REMARK   84  A    between atoms: _240  and  _242
REMARK   85  A    between atoms: _242  and  _243
REMARK   86  A    between atoms: _242  and  _245
REMARK   87  A    between atoms: _247  and  _249
REMARK   88  A    between atoms: _249  and  _250
REMARK   89  A    between atoms: _252  and  _254
REMARK   90  A    between atoms: _254  and  _255
REMARK   91  A    between atoms: _254  and  _257
REMARK   92  A    between atoms: _257  and  _258
REMARK   93  A    between atoms: _263  and  _265
REMARK   94  A    between atoms: _265  and  _266
REMARK   95  A    between atoms: _269  and  _271
REMARK   96  A    between atoms: _271  and  _272
REMARK   97  A    between atoms: _271  and  _274
REMARK   98  A    between atoms: _277  and  _279
REMARK   99  A    between atoms: _279  and  _280
REMARK  100  A    between atoms: _279  and  _282
REMARK  101  A    between atoms: _282  and  _283
REMARK  102  A    between atoms: _286  and  _288
REMARK  103  A    between atoms: _288  and  _289
REMARK  104  A    between atoms: _288  and  _291
REMARK  105  A    between atoms: _291  and  _292
REMARK  106  A    between atoms: _295  and  _297
REMARK  107  A    between atoms: _297  and  _298
REMARK  108  A    between atoms: _297  and  _300
REMARK  109  A    between atoms: _300  and  _301
REMARK  110  A    between atoms: _306  and  _307
REMARK  111  A    between atoms: _309  and  _311
REMARK  112  A    between atoms: _311  and  _312
REMARK  113  A    between atoms: _311  and  _314
REMARK  114  A    between atoms: _317  and  _319
REMARK  115  A    between atoms: _319  and  _320
REMARK  116  A    between atoms: _319  and  _322
REMARK  117  A    between atoms: _322  and  _323
REMARK  118  A    between atoms: _323  and  _324
REMARK  119  A    between atoms: _324  and  _325
REMARK  120  A    between atoms: _334  and  _336
REMARK  121  A    between atoms: _336  and  _337
REMARK  122  A    between atoms: _336  and  _339
REMARK  123  A    between atoms: _339  and  _340
REMARK  124  A    between atoms: _343  and  _345
REMARK  125  A    between atoms: _345  and  _346
REMARK  126  A    between atoms: _345  and  _348
REMARK  127  A    between atoms: _348  and  _349
REMARK  128  A    between atoms: _352  and  _354
REMARK  129  A    between atoms: _354  and  _355
REMARK  130  A    between atoms: _357  and  _359
REMARK  131  A    between atoms: _359  and  _360
REMARK  132  A    between atoms: _359  and  _362
REMARK  133  A    between atoms: _362  and  _363
REMARK  134  A    between atoms: _366  and  _368
REMARK  135  A    between atoms: _368  and  _369
REMARK  136  A    between atoms: _368  and  _371
REMARK  137  A    between atoms: _371  and  _372
REMARK  138  A    between atoms: _375  and  _377
REMARK  139  A    between atoms: _377  and  _378
REMARK  140  A    between atoms: _377  and  _380
REMARK  141  A    between atoms: _380  and  _381
REMARK  142  A    between atoms: _381  and  _382
REMARK  143  A    between atoms: _382  and  _383
REMARK  144  A    between atoms: _392  and  _394
REMARK  145  A    between atoms: _394  and  _395
REMARK  146  A    between atoms: _394  and  _397
REMARK  147  A    between atoms: _397  and  _398
REMARK  148  A    between atoms: _401  and  _403
REMARK  149  A    between atoms: _403  and  _404
REMARK  150  A    between atoms: _403  and  _406
REMARK  151  A    between atoms: _406  and  _407
REMARK  152  A    between atoms: _410  and  _412
REMARK  153  A    between atoms: _412  and  _413
REMARK  154  A    between atoms: _416  and  _418
REMARK  155  A    between atoms: _418  and  _419
REMARK  156  A    between atoms: _418  and  _421
REMARK  157  A    between atoms: _421  and  _422
REMARK  158  A    between atoms: _424  and  _426
REMARK  159  A    between atoms: _426  and  _427
REMARK  160  A    between atoms: _426  and  _429
REMARK  161  A    between atoms: _429  and  _430
REMARK  162  A    between atoms: _430  and  _431
REMARK  163  A    between atoms: _431  and  _432
REMARK  164  A    between atoms: _432  and  _433
REMARK  165  A    between atoms: _437  and  _439
REMARK  166  A    between atoms: _439  and  _440
REMARK  167  A    between atoms: _439  and  _442
REMARK  168  A    between atoms: _442  and  _443
REMARK  169  A    between atoms: _448  and  _450
REMARK  170  A    between atoms: _450  and  _451
REMARK  171  A    between atoms: _450  and  _453
REMARK  172  A    between atoms: _453  and  _454
REMARK  173  A    between atoms: _454  and  _455
REMARK  174  A    between atoms: _457  and  _459
REMARK  175  A    between atoms: _459  and  _460
REMARK  176  A    between atoms: _459  and  _462
REMARK  177  A    between atoms: _462  and  _463
REMARK  178  A    between atoms: _463  and  _464
REMARK  179  A    between atoms: _467  and  _469
REMARK  180  A    between atoms: _469  and  _470
REMARK  181  A    between atoms: _469  and  _472
REMARK  182  A    between atoms: _475  and  _477
REMARK  183  A    between atoms: _477  and  _478
REMARK  184  A    between atoms: _477  and  _480
REMARK  185  A    between atoms: _480  and  _481
REMARK  186  A    between atoms: _484  and  _486
REMARK  187  A    between atoms: _486  and  _487
REMARK  188  A    between atoms: _486  and  _489
REMARK  189  A    between atoms: _489  and  _490
REMARK  190  A    between atoms: _493  and  _495
REMARK  191  A    between atoms: _495  and  _496
REMARK  192  A    between atoms: _495  and  _498
REMARK  193  A    between atoms: _498  and  _499
REMARK  194  A    between atoms: _502  and  _504
REMARK  195  A    between atoms: _504  and  _505
REMARK  196  A    between atoms: _507  and  _509
REMARK  197  A    between atoms: _509  and  _510
REMARK  198  A    between atoms: _512  and  _514
REMARK  199  A    between atoms: _514  and  _515
REMARK  200  A    between atoms: _514  and  _517
REMARK  201  A    between atoms: _517  and  _518
REMARK  202  A    between atoms: _518  and  _519
REMARK  203  A    between atoms: _522  and  _524
REMARK  204  A    between atoms: _524  and  _525
REMARK  205  A    between atoms: _524  and  _527
REMARK  206  A    between atoms: _527  and  _528
REMARK  207  A    between atoms: _531  and  _533
REMARK  208  A    between atoms: _533  and  _534
REMARK  209  A    between atoms: _533  and  _536
REMARK  210  A    between atoms: _536  and  _537
REMARK  211  A    between atoms: _543  and  _545
REMARK  212  A    between atoms: _545  and  _546
REMARK  213  A    between atoms: _549  and  _551
REMARK  214  A    between atoms: _551  and  _552
REMARK  215  A    between atoms: _551  and  _554
REMARK  216  A    between atoms: _554  and  _555
REMARK  217  A    between atoms: _560  and  _562
REMARK  218  A    between atoms: _562  and  _563
REMARK  219  A    between atoms: _562  and  _565
REMARK  220  A    between atoms: _565  and  _566
REMARK  221  A    between atoms: _571  and  _573
REMARK  222  A    between atoms: _573  and  _574
REMARK  223  A    between atoms: _573  and  _576
REMARK  224  A    between atoms: _576  and  _577
REMARK  225  A    between atoms: _580  and  _582
REMARK  226  A    between atoms: _582  and  _583
REMARK  227  A    between atoms: _582  and  _585
REMARK  228  A    between atoms: _585  and  _586
REMARK  229  A    between atoms: _591  and  _593
REMARK  230  A    between atoms: _593  and  _594
REMARK  231  A    between atoms: _593  and  _596
REMARK  232  A    between atoms: _596  and  _597
REMARK  233  A    between atoms: _597  and  _598
REMARK  234  A    between atoms: _598  and  _599
REMARK  235  A    between atoms: _608  and  _610
REMARK  236  A    between atoms: _610  and  _611
REMARK  237  A    between atoms: _613  and  _615
REMARK  238  A    between atoms: _615  and  _616
REMARK  239  A    between atoms: _615  and  _618
REMARK  240  A    between atoms: _618  and  _619
REMARK  241  A    between atoms: _624  and  _626
REMARK  242  A    between atoms: _626  and  _627
REMARK  243  A    between atoms: _629  and  _631
REMARK  244  A    between atoms: _631  and  _632
REMARK  245  A    between atoms: _635  and  _637
REMARK  246  A    between atoms: _637  and  _638
REMARK  247  A    between atoms: _640  and  _642
REMARK  248  A    between atoms: _642  and  _643
REMARK  249  A    between atoms: _645  and  _647
REMARK  250  A    between atoms: _647  and  _648
REMARK  251  A    between atoms: _651  and  _653
REMARK  252  A    between atoms: _653  and  _654
REMARK  253  A    between atoms: _653  and  _656
REMARK  254  A    between atoms: _656  and  _657
REMARK  255  A    between atoms: _657  and  _658
REMARK  256  A    between atoms: _658  and  _659
REMARK  257  A    between atoms: _668  and  _670
REMARK  258  A    between atoms: _670  and  _671
REMARK  259  A    between atoms: _670  and  _673
REMARK  260  A    between atoms: _673  and  _674
REMARK  261  A    between atoms: _677  and  _679
REMARK  262  A    between atoms: _679  and  _680
REMARK  263  A    between atoms: _679  and  _682
REMARK  264  A    between atoms: _682  and  _683
REMARK                            x       y       z     vdW  Elec       q    Type
REMARK                         _______ _______ _______ _____ _____    ______ ____
ROOT
ATOM      1  O   HOH     1      14.274 -13.217 -32.090  0.00  0.00    +0.000 OA
ENDROOT
TORSDOF 0
REMARK  Name = ../refined-set-2016/3old/3old_pocket.pdb
REMARK  264 active torsions:
REMARK  status: ('A' for Active; 'I' for Inactive)
REMARK    1  A    between atoms: _1  and  _3
REMARK    2  A    between atoms: _3  and  _4
REMARK    3  A    between atoms: _3  and  _6
REMARK    4  A    between atoms: _6  and  _7
REMARK    5  A    between atoms: _12  and  _14
REMARK    6  A    between atoms: _14  and  _15
REMARK    7  A    between atoms: _14  and  _17
REMARK    8  A    between atoms: _17  and  _18
REMARK    9  A    between atoms: _24  and  _26
REMARK   10  A    between atoms: _26  and  _27
REMARK   11  A    between atoms: _26  and  _29
REMARK   12  A    between atoms: _29  and  _30
REMARK   13  A    between atoms: _30  and  _31
REMARK   14  A    between atoms: _37  and  _38
REMARK   15  A    between atoms: _43  and  _45
REMARK   16  A    between atoms: _45  and  _46
REMARK   17  A    between atoms: _45  and  _48
REMARK   18  A    between atoms: _48  and  _49
REMARK   19  A    between atoms: _54  and  _56
REMARK   20  A    between atoms: _56  and  _57
REMARK   21  A    between atoms: _56  and  _59
REMARK   22  A    between atoms: _62  and  _64
REMARK   23  A    between atoms: _64  and  _65
REMARK   24  A    between atoms: _64  and  _67
REMARK   25  A    between atoms: _67  and  _68
REMARK   26  A    between atoms: _72  and  _73
REMARK   27  A    between atoms: _79  and  _80
REMARK   28  A    between atoms: _85  and  _87
REMARK   29  A    between atoms: _87  and  _88
REMARK   30  A    between atoms: _87  and  _90
REMARK   31  A    between atoms: _90  and  _91
REMARK   32  A    between atoms: _101  and  _103
REMARK   33  A    between atoms: _103  and  _104
REMARK   34  A    between atoms: _103  and  _106
REMARK   35  A    between atoms: _106  and  _107
REMARK   36  A    between atoms: _117  and  _119
REMARK   37  A    between atoms: _119  and  _120
REMARK   38  A    between atoms: _119  and  _122
REMARK   39  A    between atoms: _122  and  _123
REMARK   40  A    between atoms: _123  and  _124
REMARK   41  A    between atoms: _127  and  _129
REMARK   42  A    between atoms: _129  and  _130
REMARK   43  A    between atoms: _129  and  _132
REMARK   44  A    between atoms: _132  and  _133
REMARK   45  A    between atoms: _133  and  _134
REMARK   46  A    between atoms: _134  and  _135
REMARK   47  A    between atoms: _144  and  _146
REMARK   48  A    between atoms: _146  and  _147
REMARK   49  A    between atoms: _146  and  _149
REMARK   50  A    between atoms: _149  and  _150
REMARK   51  A    between atoms: _155  and  _156
REMARK   52  A    between atoms: _158  and  _160
REMARK   53  A    between atoms: _160  and  _161
REMARK   54  A    between atoms: _160  and  _163
REMARK   55  A    between atoms: _163  and  _164
REMARK   56  A    between atoms: _164  and  _165
REMARK   57  A    between atoms: _171  and  _172
REMARK   58  A    between atoms: _177  and  _179
REMARK   59  A    between atoms: _179  and  _180
REMARK   60  A    between atoms: _179  and  _182
REMARK   61  A    between atoms: _182  and  _183
REMARK   62  A    between atoms: _186  and  _188
REMARK   63  A    between atoms: _188  and  _189
REMARK   64  A    between atoms: _192  and  _194
REMARK   65  A    between atoms: _194  and  _195
REMARK   66  A    between atoms: _194  and  _197
REMARK   67  A    between atoms: _200  and  _202
REMARK   68  A    between atoms: _202  and  _203
REMARK   69  A    between atoms: _202  and  _205
REMARK   70  A    between atoms: _205  and  _206
REMARK   71  A    between atoms: _209  and  _211
REMARK   72  A    between atoms: _211  and  _212
REMARK   73  A    between atoms: _211  and  _214
REMARK   74  A    between atoms: _214  and  _215
REMARK   75  A    between atoms: _220  and  _222
REMARK   76  A    between atoms: _222  and  _223
REMARK   77  A    between atoms: _222  and  _225
REMARK   78  A    between atoms: _225  and  _226
REMARK   79  A    between atoms: _231  and  _233
REMARK   80  A    between atoms: _233  and  _234
REMARK   81  A    between atoms: _233  and  _236
REMARK   82  A    between atoms: _236  and  _237
REMARK   83  A    between atoms: _237  and  _238
REMARK   84  A    between atoms: _240  and  _242
REMARK   85  A    between atoms: _242  and  _243
REMARK   86  A    between atoms: _242  and  _245
REMARK   87  A    between atoms: _247  and  _249
REMARK   88  A    between atoms: _249  and  _250
REMARK   89  A    between atoms: _252  and  _254
REMARK   90  A    between atoms: _254  and  _255
REMARK   91  A    between atoms: _254  and  _257
REMARK   92  A    between atoms: _257  and  _258
REMARK   93  A    between atoms: _263  and  _265
REMARK   94  A    between atoms: _265  and  _266
REMARK   95  A    between atoms: _269  and  _271
REMARK   96  A    between atoms: _271  and  _272
REMARK   97  A    between atoms: _271  and  _274
REMARK   98  A    between atoms: _277  and  _279
REMARK   99  A    between atoms: _279  and  _280
REMARK  100  A    between atoms: _279  and  _282
REMARK  101  A    between atoms: _282  and  _283
REMARK  102  A    between atoms: _286  and  _288
REMARK  103  A    between atoms: _288  and  _289
REMARK  104  A    between atoms: _288  and  _291
REMARK  105  A    between atoms: _291  and  _292
REMARK  106  A    between atoms: _295  and  _297
REMARK  107  A    between atoms: _297  and  _298
REMARK  108  A    between atoms: _297  and  _300
REMARK  109  A    between atoms: _300  and  _301
REMARK  110  A    between atoms: _306  and  _307
REMARK  111  A    between atoms: _309  and  _311
REMARK  112  A    between atoms: _311  and  _312
REMARK  113  A    between atoms: _311  and  _314
REMARK  114  A    between atoms: _317  and  _319
REMARK  115  A    between atoms: _319  and  _320
REMARK  116  A    between atoms: _319  and  _322
REMARK  117  A    between atoms: _322  and  _323
REMARK  118  A    between atoms: _323  and  _324
REMARK  119  A    between atoms: _324  and  _325
REMARK  120  A    between atoms: _334  and  _336
REMARK  121  A    between atoms: _336  and  _337
REMARK  122  A    between atoms: _336  and  _339
REMARK  123  A    between atoms: _339  and  _340
REMARK  124  A    between atoms: _343  and  _345
REMARK  125  A    between atoms: _345  and  _346
REMARK  126  A    between atoms: _345  and  _348
REMARK  127  A    between atoms: _348  and  _349
REMARK  128  A    between atoms: _352  and  _354
REMARK  129  A    between atoms: _354  and  _355
REMARK  130  A    between atoms: _357  and  _359
REMARK  131  A    between atoms: _359  and  _360
REMARK  132  A    between atoms: _359  and  _362
REMARK  133  A    between atoms: _362  and  _363
REMARK  134  A    between atoms: _366  and  _368
REMARK  135  A    between atoms: _368  and  _369
REMARK  136  A    between atoms: _368  and  _371
REMARK  137  A    between atoms: _371  and  _372
REMARK  138  A    between atoms: _375  and  _377
REMARK  139  A    between atoms: _377  and  _378
REMARK  140  A    between atoms: _377  and  _380
REMARK  141  A    between atoms: _380  and  _381
REMARK  142  A    between atoms: _381  and  _382
REMARK  143  A    between atoms: _382  and  _383
REMARK  144  A    between atoms: _392  and  _394
REMARK  145  A    between atoms: _394  and  _395
REMARK  146  A    between atoms: _394  and  _397
REMARK  147  A    between atoms: _397  and  _398
REMARK  148  A    between atoms: _401  and  _403
REMARK  149  A    between atoms: _403  and  _404
REMARK  150  A    between atoms: _403  and  _406
REMARK  151  A    between atoms: _406  and  _407
REMARK  152  A    between atoms: _410  and  _412
REMARK  153  A    between atoms: _412  and  _413
REMARK  154  A    between atoms: _416  and  _418
REMARK  155  A    between atoms: _418  and  _419
REMARK  156  A    between atoms: _418  and  _421
REMARK  157  A    between atoms: _421  and  _422
REMARK  158  A    between atoms: _424  and  _426
REMARK  159  A    between atoms: _426  and  _427
REMARK  160  A    between atoms: _426  and  _429
REMARK  161  A    between atoms: _429  and  _430
REMARK  162  A    between atoms: _430  and  _431
REMARK  163  A    between atoms: _431  and  _432
REMARK  164  A    between atoms: _432  and  _433
REMARK  165  A    between atoms: _437  and  _439
REMARK  166  A    between atoms: _439  and  _440
REMARK  167  A    between atoms: _439  and  _442
REMARK  168  A    between atoms: _442  and  _443
REMARK  169  A    between atoms: _448  and  _450
REMARK  170  A    between atoms: _450  and  _451
REMARK  171  A    between atoms: _450  and  _453
REMARK  172  A    between atoms: _453  and  _454
REMARK  173  A    between atoms: _454  and  _455
REMARK  174  A    between atoms: _457  and  _459
REMARK  175  A    between atoms: _459  and  _460
REMARK  176  A    between atoms: _459  and  _462
REMARK  177  A    between atoms: _462  and  _463
REMARK  178  A    between atoms: _463  and  _464
REMARK  179  A    between atoms: _467  and  _469
REMARK  180  A    between atoms: _469  and  _470
REMARK  181  A    between atoms: _469  and  _472
REMARK  182  A    between atoms: _475  and  _477
REMARK  183  A    between atoms: _477  and  _478
REMARK  184  A    between atoms: _477  and  _480
REMARK  185  A    between atoms: _480  and  _481
REMARK  186  A    between atoms: _484  and  _486
REMARK  187  A    between atoms: _486  and  _487
REMARK  188  A    between atoms: _486  and  _489
REMARK  189  A    between atoms: _489  and  _490
REMARK  190  A    between atoms: _493  and  _495
REMARK  191  A    between atoms: _495  and  _496
REMARK  192  A    between atoms: _495  and  _498
REMARK  193  A    between atoms: _498  and  _499
REMARK  194  A    between atoms: _502  and  _504
REMARK  195  A    between atoms: _504  and  _505
REMARK  196  A    between atoms: _507  and  _509
REMARK  197  A    between atoms: _509  and  _510
REMARK  198  A    between atoms: _512  and  _514
REMARK  199  A    between atoms: _514  and  _515
REMARK  200  A    between atoms: _514  and  _517
REMARK  201  A    between atoms: _517  and  _518
REMARK  202  A    between atoms: _518  and  _519
REMARK  203  A    between atoms: _522  and  _524
REMARK  204  A    between atoms: _524  and  _525
REMARK  205  A    between atoms: _524  and  _527
REMARK  206  A    between atoms: _527  and  _528
REMARK  207  A    between atoms: _531  and  _533
REMARK  208  A    between atoms: _533  and  _534
REMARK  209  A    between atoms: _533  and  _536
REMARK  210  A    between atoms: _536  and  _537
REMARK  211  A    between atoms: _543  and  _545
REMARK  212  A    between atoms: _545  and  _546
REMARK  213  A    between atoms: _549  and  _551
REMARK  214  A    between atoms: _551  and  _552
REMARK  215  A    between atoms: _551  and  _554
REMARK  216  A    between atoms: _554  and  _555
REMARK  217  A    between atoms: _560  and  _562
REMARK  218  A    between atoms: _562  and  _563
REMARK  219  A    between atoms: _562  and  _565
REMARK  220  A    between atoms: _565  and  _566
REMARK  221  A    between atoms: _571  and  _573
REMARK  222  A    between atoms: _573  and  _574
REMARK  223  A    between atoms: _573  and  _576
REMARK  224  A    between atoms: _576  and  _577
REMARK  225  A    between atoms: _580  and  _582
REMARK  226  A    between atoms: _582  and  _583
REMARK  227  A    between atoms: _582  and  _585
REMARK  228  A    between atoms: _585  and  _586
REMARK  229  A    between atoms: _591  and  _593
REMARK  230  A    between atoms: _593  and  _594
REMARK  231  A    between atoms: _593  and  _596
REMARK  232  A    between atoms: _596  and  _597
REMARK  233  A    between atoms: _597  and  _598
REMARK  234  A    between atoms: _598  and  _599
REMARK  235  A    between atoms: _608  and  _610
REMARK  236  A    between atoms: _610  and  _611
REMARK  237  A    between atoms: _613  and  _615
REMARK  238  A    between atoms: _615  and  _616
REMARK  239  A    between atoms: _615  and  _618
REMARK  240  A    between atoms: _618  and  _619
REMARK  241  A    between atoms: _624  and  _626
REMARK  242  A    between atoms: _626  and  _627
REMARK  243  A    between atoms: _629  and  _631
REMARK  244  A    between atoms: _631  and  _632
REMARK  245  A    between atoms: _635  and  _637
REMARK  246  A    between atoms: _637  and  _638
REMARK  247  A    between atoms: _640  and  _642
REMARK  248  A    between atoms: _642  and  _643
REMARK  249  A    between atoms: _645  and  _647
REMARK  250  A    between atoms: _647  and  _648
REMARK  251  A    between atoms: _651  and  _653
REMARK  252  A    between atoms: _653  and  _654
REMARK  253  A    between atoms: _653  and  _656
REMARK  254  A    between atoms: _656  and  _657
REMARK  255  A    between atoms: _657  and  _658
REMARK  256  A    between atoms: _658  and  _659
REMARK  257  A    between atoms: _668  and  _670
REMARK  258  A    between atoms: _670  and  _671
REMARK  259  A    between atoms: _670  and  _673
REMARK  260  A    between atoms: _673  and  _674
REMARK  261  A    between atoms: _677  and  _679
REMARK  262  A    between atoms: _679  and  _680
REMARK  263  A    between atoms: _679  and  _682
REMARK  264  A    between atoms: _682  and  _683
REMARK                            x       y       z     vdW  Elec       q    Type
REMARK                         _______ _______ _______ _____ _____    ______ ____
ROOT
ATOM      1  O   HOH     1       9.691  -6.735 -18.578  0.00  0.00    +0.000 OA
ENDROOT
TORSDOF 0
REMARK  Name = ../refined-set-2016/3old/3old_pocket.pdb
REMARK  264 active torsions:
REMARK  status: ('A' for Active; 'I' for Inactive)
REMARK    1  A    between atoms: _1  and  _3
REMARK    2  A    between atoms: _3  and  _4
REMARK    3  A    between atoms: _3  and  _6
REMARK    4  A    between atoms: _6  and  _7
REMARK    5  A    between atoms: _12  and  _14
REMARK    6  A    between atoms: _14  and  _15
REMARK    7  A    between atoms: _14  and  _17
REMARK    8  A    between atoms: _17  and  _18
REMARK    9  A    between atoms: _24  and  _26
REMARK   10  A    between atoms: _26  and  _27
REMARK   11  A    between atoms: _26  and  _29
REMARK   12  A    between atoms: _29  and  _30
REMARK   13  A    between atoms: _30  and  _31
REMARK   14  A    between atoms: _37  and  _38
REMARK   15  A    between atoms: _43  and  _45
REMARK   16  A    between atoms: _45  and  _46
REMARK   17  A    between atoms: _45  and  _48
REMARK   18  A    between atoms: _48  and  _49
REMARK   19  A    between atoms: _54  and  _56
REMARK   20  A    between atoms: _56  and  _57
REMARK   21  A    between atoms: _56  and  _59
REMARK   22  A    between atoms: _62  and  _64
REMARK   23  A    between atoms: _64  and  _65
REMARK   24  A    between atoms: _64  and  _67
REMARK   25  A    between atoms: _67  and  _68
REMARK   26  A    between atoms: _72  and  _73
REMARK   27  A    between atoms: _79  and  _80
REMARK   28  A    between atoms: _85  and  _87
REMARK   29  A    between atoms: _87  and  _88
REMARK   30  A    between atoms: _87  and  _90
REMARK   31  A    between atoms: _90  and  _91
REMARK   32  A    between atoms: _101  and  _103
REMARK   33  A    between atoms: _103  and  _104
REMARK   34  A    between atoms: _103  and  _106
REMARK   35  A    between atoms: _106  and  _107
REMARK   36  A    between atoms: _117  and  _119
REMARK   37  A    between atoms: _119  and  _120
REMARK   38  A    between atoms: _119  and  _122
REMARK   39  A    between atoms: _122  and  _123
REMARK   40  A    between atoms: _123  and  _124
REMARK   41  A    between atoms: _127  and  _129
REMARK   42  A    between atoms: _129  and  _130
REMARK   43  A    between atoms: _129  and  _132
REMARK   44  A    between atoms: _132  and  _133
REMARK   45  A    between atoms: _133  and  _134
REMARK   46  A    between atoms: _134  and  _135
REMARK   47  A    between atoms: _144  and  _146
REMARK   48  A    between atoms: _146  and  _147
REMARK   49  A    between atoms: _146  and  _149
REMARK   50  A    between atoms: _149  and  _150
REMARK   51  A    between atoms: _155  and  _156
REMARK   52  A    between atoms: _158  and  _160
REMARK   53  A    between atoms: _160  and  _161
REMARK   54  A    between atoms: _160  and  _163
REMARK   55  A    between atoms: _163  and  _164
REMARK   56  A    between atoms: _164  and  _165
REMARK   57  A    between atoms: _171  and  _172
REMARK   58  A    between atoms: _177  and  _179
REMARK   59  A    between atoms: _179  and  _180
REMARK   60  A    between atoms: _179  and  _182
REMARK   61  A    between atoms: _182  and  _183
REMARK   62  A    between atoms: _186  and  _188
REMARK   63  A    between atoms: _188  and  _189
REMARK   64  A    between atoms: _192  and  _194
REMARK   65  A    between atoms: _194  and  _195
REMARK   66  A    between atoms: _194  and  _197
REMARK   67  A    between atoms: _200  and  _202
REMARK   68  A    between atoms: _202  and  _203
REMARK   69  A    between atoms: _202  and  _205
REMARK   70  A    between atoms: _205  and  _206
REMARK   71  A    between atoms: _209  and  _211
REMARK   72  A    between atoms: _211  and  _212
REMARK   73  A    between atoms: _211  and  _214
REMARK   74  A    between atoms: _214  and  _215
REMARK   75  A    between atoms: _220  and  _222
REMARK   76  A    between atoms: _222  and  _223
REMARK   77  A    between atoms: _222  and  _225
REMARK   78  A    between atoms: _225  and  _226
REMARK   79  A    between atoms: _231  and  _233
REMARK   80  A    between atoms: _233  and  _234
REMARK   81  A    between atoms: _233  and  _236
REMARK   82  A    between atoms: _236  and  _237
REMARK   83  A    between atoms: _237  and  _238
REMARK   84  A    between atoms: _240  and  _242
REMARK   85  A    between atoms: _242  and  _243
REMARK   86  A    between atoms: _242  and  _245
REMARK   87  A    between atoms: _247  and  _249
REMARK   88  A    between atoms: _249  and  _250
REMARK   89  A    between atoms: _252  and  _254
REMARK   90  A    between atoms: _254  and  _255
REMARK   91  A    between atoms: _254  and  _257
REMARK   92  A    between atoms: _257  and  _258
REMARK   93  A    between atoms: _263  and  _265
REMARK   94  A    between atoms: _265  and  _266
REMARK   95  A    between atoms: _269  and  _271
REMARK   96  A    between atoms: _271  and  _272
REMARK   97  A    between atoms: _271  and  _274
REMARK   98  A    between atoms: _277  and  _279
REMARK   99  A    between atoms: _279  and  _280
REMARK  100  A    between atoms: _279  and  _282
REMARK  101  A    between atoms: _282  and  _283
REMARK  102  A    between atoms: _286  and  _288
REMARK  103  A    between atoms: _288  and  _289
REMARK  104  A    between atoms: _288  and  _291
REMARK  105  A    between atoms: _291  and  _292
REMARK  106  A    between atoms: _295  and  _297
REMARK  107  A    between atoms: _297  and  _298
REMARK  108  A    between atoms: _297  and  _300
REMARK  109  A    between atoms: _300  and  _301
REMARK  110  A    between atoms: _306  and  _307
REMARK  111  A    between atoms: _309  and  _311
REMARK  112  A    between atoms: _311  and  _312
REMARK  113  A    between atoms: _311  and  _314
REMARK  114  A    between atoms: _317  and  _319
REMARK  115  A    between atoms: _319  and  _320
REMARK  116  A    between atoms: _319  and  _322
REMARK  117  A    between atoms: _322  and  _323
REMARK  118  A    between atoms: _323  and  _324
REMARK  119  A    between atoms: _324  and  _325
REMARK  120  A    between atoms: _334  and  _336
REMARK  121  A    between atoms: _336  and  _337
REMARK  122  A    between atoms: _336  and  _339
REMARK  123  A    between atoms: _339  and  _340
REMARK  124  A    between atoms: _343  and  _345
REMARK  125  A    between atoms: _345  and  _346
REMARK  126  A    between atoms: _345  and  _348
REMARK  127  A    between atoms: _348  and  _349
REMARK  128  A    between atoms: _352  and  _354
REMARK  129  A    between atoms: _354  and  _355
REMARK  130  A    between atoms: _357  and  _359
REMARK  131  A    between atoms: _359  and  _360
REMARK  132  A    between atoms: _359  and  _362
REMARK  133  A    between atoms: _362  and  _363
REMARK  134  A    between atoms: _366  and  _368
REMARK  135  A    between atoms: _368  and  _369
REMARK  136  A    between atoms: _368  and  _371
REMARK  137  A    between atoms: _371  and  _372
REMARK  138  A    between atoms: _375  and  _377
REMARK  139  A    between atoms: _377  and  _378
REMARK  140  A    between atoms: _377  and  _380
REMARK  141  A    between atoms: _380  and  _381
REMARK  142  A    between atoms: _381  and  _382
REMARK  143  A    between atoms: _382  and  _383
REMARK  144  A    between atoms: _392  and  _394
REMARK  145  A    between atoms: _394  and  _395
REMARK  146  A    between atoms: _394  and  _397
REMARK  147  A    between atoms: _397  and  _398
REMARK  148  A    between atoms: _401  and  _403
REMARK  149  A    between atoms: _403  and  _404
REMARK  150  A    between atoms: _403  and  _406
REMARK  151  A    between atoms: _406  and  _407
REMARK  152  A    between atoms: _410  and  _412
REMARK  153  A    between atoms: _412  and  _413
REMARK  154  A    between atoms: _416  and  _418
REMARK  155  A    between atoms: _418  and  _419
REMARK  156  A    between atoms: _418  and  _421
REMARK  157  A    between atoms: _421  and  _422
REMARK  158  A    between atoms: _424  and  _426
REMARK  159  A    between atoms: _426  and  _427
REMARK  160  A    between atoms: _426  and  _429
REMARK  161  A    between atoms: _429  and  _430
REMARK  162  A    between atoms: _430  and  _431
REMARK  163  A    between atoms: _431  and  _432
REMARK  164  A    between atoms: _432  and  _433
REMARK  165  A    between atoms: _437  and  _439
REMARK  166  A    between atoms: _439  and  _440
REMARK  167  A    between atoms: _439  and  _442
REMARK  168  A    between atoms: _442  and  _443
REMARK  169  A    between atoms: _448  and  _450
REMARK  170  A    between atoms: _450  and  _451
REMARK  171  A    between atoms: _450  and  _453
REMARK  172  A    between atoms: _453  and  _454
REMARK  173  A    between atoms: _454  and  _455
REMARK  174  A    between atoms: _457  and  _459
REMARK  175  A    between atoms: _459  and  _460
REMARK  176  A    between atoms: _459  and  _462
REMARK  177  A    between atoms: _462  and  _463
REMARK  178  A    between atoms: _463  and  _464
REMARK  179  A    between atoms: _467  and  _469
REMARK  180  A    between atoms: _469  and  _470
REMARK  181  A    between atoms: _469  and  _472
REMARK  182  A    between atoms: _475  and  _477
REMARK  183  A    between atoms: _477  and  _478
REMARK  184  A    between atoms: _477  and  _480
REMARK  185  A    between atoms: _480  and  _481
REMARK  186  A    between atoms: _484  and  _486
REMARK  187  A    between atoms: _486  and  _487
REMARK  188  A    between atoms: _486  and  _489
REMARK  189  A    between atoms: _489  and  _490
REMARK  190  A    between atoms: _493  and  _495
REMARK  191  A    between atoms: _495  and  _496
REMARK  192  A    between atoms: _495  and  _498
REMARK  193  A    between atoms: _498  and  _499
REMARK  194  A    between atoms: _502  and  _504
REMARK  195  A    between atoms: _504  and  _505
REMARK  196  A    between atoms: _507  and  _509
REMARK  197  A    between atoms: _509  and  _510
REMARK  198  A    between atoms: _512  and  _514
REMARK  199  A    between atoms: _514  and  _515
REMARK  200  A    between atoms: _514  and  _517
REMARK  201  A    between atoms: _517  and  _518
REMARK  202  A    between atoms: _518  and  _519
REMARK  203  A    between atoms: _522  and  _524
REMARK  204  A    between atoms: _524  and  _525
REMARK  205  A    between atoms: _524  and  _527
REMARK  206  A    between atoms: _527  and  _528
REMARK  207  A    between atoms: _531  and  _533
REMARK  208  A    between atoms: _533  and  _534
REMARK  209  A    between atoms: _533  and  _536
REMARK  210  A    between atoms: _536  and  _537
REMARK  211  A    between atoms: _543  and  _545
REMARK  212  A    between atoms: _545  and  _546
REMARK  213  A    between atoms: _549  and  _551
REMARK  214  A    between atoms: _551  and  _552
REMARK  215  A    between atoms: _551  and  _554
REMARK  216  A    between atoms: _554  and  _555
REMARK  217  A    between atoms: _560  and  _562
REMARK  218  A    between atoms: _562  and  _563
REMARK  219  A    between atoms: _562  and  _565
REMARK  220  A    between atoms: _565  and  _566
REMARK  221  A    between atoms: _571  and  _573
REMARK  222  A    between atoms: _573  and  _574
REMARK  223  A    between atoms: _573  and  _576
REMARK  224  A    between atoms: _576  and  _577
REMARK  225  A    between atoms: _580  and  _582
REMARK  226  A    between atoms: _582  and  _583
REMARK  227  A    between atoms: _582  and  _585
REMARK  228  A    between atoms: _585  and  _586
REMARK  229  A    between atoms: _591  and  _593
REMARK  230  A    between atoms: _593  and  _594
REMARK  231  A    between atoms: _593  and  _596
REMARK  232  A    between atoms: _596  and  _597
REMARK  233  A    between atoms: _597  and  _598
REMARK  234  A    between atoms: _598  and  _599
REMARK  235  A    between atoms: _608  and  _610
REMARK  236  A    between atoms: _610  and  _611
REMARK  237  A    between atoms: _613  and  _615
REMARK  238  A    between atoms: _615  and  _616
REMARK  239  A    between atoms: _615  and  _618
REMARK  240  A    between atoms: _618  and  _619
REMARK  241  A    between atoms: _624  and  _626
REMARK  242  A    between atoms: _626  and  _627
REMARK  243  A    between atoms: _629  and  _631
REMARK  244  A    between atoms: _631  and  _632
REMARK  245  A    between atoms: _635  and  _637
REMARK  246  A    between atoms: _637  and  _638
REMARK  247  A    between atoms: _640  and  _642
REMARK  248  A    between atoms: _642  and  _643
REMARK  249  A    between atoms: _645  and  _647
REMARK  250  A    between atoms: _647  and  _648
REMARK  251  A    between atoms: _651  and  _653
REMARK  252  A    between atoms: _653  and  _654
REMARK  253  A    between atoms: _653  and  _656
REMARK  254  A    between atoms: _656  and  _657
REMARK  255  A    between atoms: _657  and  _658
REMARK  256  A    between atoms: _658  and  _659
REMARK  257  A    between atoms: _668  and  _670
REMARK  258  A    between atoms: _670  and  _671
REMARK  259  A    between atoms: _670  and  _673
REMARK  260  A    between atoms: _673  and  _674
REMARK  261  A    between atoms: _677  and  _679
REMARK  262  A    between atoms: _679  and  _680
REMARK  263  A    between atoms: _679  and  _682
REMARK  264  A    between atoms: _682  and  _683
REMARK                            x       y       z     vdW  Elec       q    Type
REMARK                         _______ _______ _______ _____ _____    ______ ____
ROOT
ATOM      1  O   HOH     1       8.497 -25.823 -27.867  0.00  0.00    +0.000 OA
ENDROOT
TORSDOF 0
REMARK  Name = ../refined-set-2016/3old/3old_pocket.pdb
REMARK  264 active torsions:
REMARK  status: ('A' for Active; 'I' for Inactive)
REMARK    1  A    between atoms: _1  and  _3
REMARK    2  A    between atoms: _3  and  _4
REMARK    3  A    between atoms: _3  and  _6
REMARK    4  A    between atoms: _6  and  _7
REMARK    5  A    between atoms: _12  and  _14
REMARK    6  A    between atoms: _14  and  _15
REMARK    7  A    between atoms: _14  and  _17
REMARK    8  A    between atoms: _17  and  _18
REMARK    9  A    between atoms: _24  and  _26
REMARK   10  A    between atoms: _26  and  _27
REMARK   11  A    between atoms: _26  and  _29
REMARK   12  A    between atoms: _29  and  _30
REMARK   13  A    between atoms: _30  and  _31
REMARK   14  A    between atoms: _37  and  _38
REMARK   15  A    between atoms: _43  and  _45
REMARK   16  A    between atoms: _45  and  _46
REMARK   17  A    between atoms: _45  and  _48
REMARK   18  A    between atoms: _48  and  _49
REMARK   19  A    between atoms: _54  and  _56
REMARK   20  A    between atoms: _56  and  _57
REMARK   21  A    between atoms: _56  and  _59
REMARK   22  A    between atoms: _62  and  _64
REMARK   23  A    between atoms: _64  and  _65
REMARK   24  A    between atoms: _64  and  _67
REMARK   25  A    between atoms: _67  and  _68
REMARK   26  A    between atoms: _72  and  _73
REMARK   27  A    between atoms: _79  and  _80
REMARK   28  A    between atoms: _85  and  _87
REMARK   29  A    between atoms: _87  and  _88
REMARK   30  A    between atoms: _87  and  _90
REMARK   31  A    between atoms: _90  and  _91
REMARK   32  A    between atoms: _101  and  _103
REMARK   33  A    between atoms: _103  and  _104
REMARK   34  A    between atoms: _103  and  _106
REMARK   35  A    between atoms: _106  and  _107
REMARK   36  A    between atoms: _117  and  _119
REMARK   37  A    between atoms: _119  and  _120
REMARK   38  A    between atoms: _119  and  _122
REMARK   39  A    between atoms: _122  and  _123
REMARK   40  A    between atoms: _123  and  _124
REMARK   41  A    between atoms: _127  and  _129
REMARK   42  A    between atoms: _129  and  _130
REMARK   43  A    between atoms: _129  and  _132
REMARK   44  A    between atoms: _132  and  _133
REMARK   45  A    between atoms: _133  and  _134
REMARK   46  A    between atoms: _134  and  _135
REMARK   47  A    between atoms: _144  and  _146
REMARK   48  A    between atoms: _146  and  _147
REMARK   49  A    between atoms: _146  and  _149
REMARK   50  A    between atoms: _149  and  _150
REMARK   51  A    between atoms: _155  and  _156
REMARK   52  A    between atoms: _158  and  _160
REMARK   53  A    between atoms: _160  and  _161
REMARK   54  A    between atoms: _160  and  _163
REMARK   55  A    between atoms: _163  and  _164
REMARK   56  A    between atoms: _164  and  _165
REMARK   57  A    between atoms: _171  and  _172
REMARK   58  A    between atoms: _177  and  _179
REMARK   59  A    between atoms: _179  and  _180
REMARK   60  A    between atoms: _179  and  _182
REMARK   61  A    between atoms: _182  and  _183
REMARK   62  A    between atoms: _186  and  _188
REMARK   63  A    between atoms: _188  and  _189
REMARK   64  A    between atoms: _192  and  _194
REMARK   65  A    between atoms: _194  and  _195
REMARK   66  A    between atoms: _194  and  _197
REMARK   67  A    between atoms: _200  and  _202
REMARK   68  A    between atoms: _202  and  _203
REMARK   69  A    between atoms: _202  and  _205
REMARK   70  A    between atoms: _205  and  _206
REMARK   71  A    between atoms: _209  and  _211
REMARK   72  A    between atoms: _211  and  _212
REMARK   73  A    between atoms: _211  and  _214
REMARK   74  A    between atoms: _214  and  _215
REMARK   75  A    between atoms: _220  and  _222
REMARK   76  A    between atoms: _222  and  _223
REMARK   77  A    between atoms: _222  and  _225
REMARK   78  A    between atoms: _225  and  _226
REMARK   79  A    between atoms: _231  and  _233
REMARK   80  A    between atoms: _233  and  _234
REMARK   81  A    between atoms: _233  and  _236
REMARK   82  A    between atoms: _236  and  _237
REMARK   83  A    between atoms: _237  and  _238
REMARK   84  A    between atoms: _240  and  _242
REMARK   85  A    between atoms: _242  and  _243
REMARK   86  A    between atoms: _242  and  _245
REMARK   87  A    between atoms: _247  and  _249
REMARK   88  A    between atoms: _249  and  _250
REMARK   89  A    between atoms: _252  and  _254
REMARK   90  A    between atoms: _254  and  _255
REMARK   91  A    between atoms: _254  and  _257
REMARK   92  A    between atoms: _257  and  _258
REMARK   93  A    between atoms: _263  and  _265
REMARK   94  A    between atoms: _265  and  _266
REMARK   95  A    between atoms: _269  and  _271
REMARK   96  A    between atoms: _271  and  _272
REMARK   97  A    between atoms: _271  and  _274
REMARK   98  A    between atoms: _277  and  _279
REMARK   99  A    between atoms: _279  and  _280
REMARK  100  A    between atoms: _279  and  _282
REMARK  101  A    between atoms: _282  and  _283
REMARK  102  A    between atoms: _286  and  _288
REMARK  103  A    between atoms: _288  and  _289
REMARK  104  A    between atoms: _288  and  _291
REMARK  105  A    between atoms: _291  and  _292
REMARK  106  A    between atoms: _295  and  _297
REMARK  107  A    between atoms: _297  and  _298
REMARK  108  A    between atoms: _297  and  _300
REMARK  109  A    between atoms: _300  and  _301
REMARK  110  A    between atoms: _306  and  _307
REMARK  111  A    between atoms: _309  and  _311
REMARK  112  A    between atoms: _311  and  _312
REMARK  113  A    between atoms: _311  and  _314
REMARK  114  A    between atoms: _317  and  _319
REMARK  115  A    between atoms: _319  and  _320
REMARK  116  A    between atoms: _319  and  _322
REMARK  117  A    between atoms: _322  and  _323
REMARK  118  A    between atoms: _323  and  _324
REMARK  119  A    between atoms: _324  and  _325
REMARK  120  A    between atoms: _334  and  _336
REMARK  121  A    between atoms: _336  and  _337
REMARK  122  A    between atoms: _336  and  _339
REMARK  123  A    between atoms: _339  and  _340
REMARK  124  A    between atoms: _343  and  _345
REMARK  125  A    between atoms: _345  and  _346
REMARK  126  A    between atoms: _345  and  _348
REMARK  127  A    between atoms: _348  and  _349
REMARK  128  A    between atoms: _352  and  _354
REMARK  129  A    between atoms: _354  and  _355
REMARK  130  A    between atoms: _357  and  _359
REMARK  131  A    between atoms: _359  and  _360
REMARK  132  A    between atoms: _359  and  _362
REMARK  133  A    between atoms: _362  and  _363
REMARK  134  A    between atoms: _366  and  _368
REMARK  135  A    between atoms: _368  and  _369
REMARK  136  A    between atoms: _368  and  _371
REMARK  137  A    between atoms: _371  and  _372
REMARK  138  A    between atoms: _375  and  _377
REMARK  139  A    between atoms: _377  and  _378
REMARK  140  A    between atoms: _377  and  _380
REMARK  141  A    between atoms: _380  and  _381
REMARK  142  A    between atoms: _381  and  _382
REMARK  143  A    between atoms: _382  and  _383
REMARK  144  A    between atoms: _392  and  _394
REMARK  145  A    between atoms: _394  and  _395
REMARK  146  A    between atoms: _394  and  _397
REMARK  147  A    between atoms: _397  and  _398
REMARK  148  A    between atoms: _401  and  _403
REMARK  149  A    between atoms: _403  and  _404
REMARK  150  A    between atoms: _403  and  _406
REMARK  151  A    between atoms: _406  and  _407
REMARK  152  A    between atoms: _410  and  _412
REMARK  153  A    between atoms: _412  and  _413
REMARK  154  A    between atoms: _416  and  _418
REMARK  155  A    between atoms: _418  and  _419
REMARK  156  A    between atoms: _418  and  _421
REMARK  157  A    between atoms: _421  and  _422
REMARK  158  A    between atoms: _424  and  _426
REMARK  159  A    between atoms: _426  and  _427
REMARK  160  A    between atoms: _426  and  _429
REMARK  161  A    between atoms: _429  and  _430
REMARK  162  A    between atoms: _430  and  _431
REMARK  163  A    between atoms: _431  and  _432
REMARK  164  A    between atoms: _432  and  _433
REMARK  165  A    between atoms: _437  and  _439
REMARK  166  A    between atoms: _439  and  _440
REMARK  167  A    between atoms: _439  and  _442
REMARK  168  A    between atoms: _442  and  _443
REMARK  169  A    between atoms: _448  and  _450
REMARK  170  A    between atoms: _450  and  _451
REMARK  171  A    between atoms: _450  and  _453
REMARK  172  A    between atoms: _453  and  _454
REMARK  173  A    between atoms: _454  and  _455
REMARK  174  A    between atoms: _457  and  _459
REMARK  175  A    between atoms: _459  and  _460
REMARK  176  A    between atoms: _459  and  _462
REMARK  177  A    between atoms: _462  and  _463
REMARK  178  A    between atoms: _463  and  _464
REMARK  179  A    between atoms: _467  and  _469
REMARK  180  A    between atoms: _469  and  _470
REMARK  181  A    between atoms: _469  and  _472
REMARK  182  A    between atoms: _475  and  _477
REMARK  183  A    between atoms: _477  and  _478
REMARK  184  A    between atoms: _477  and  _480
REMARK  185  A    between atoms: _480  and  _481
REMARK  186  A    between atoms: _484  and  _486
REMARK  187  A    between atoms: _486  and  _487
REMARK  188  A    between atoms: _486  and  _489
REMARK  189  A    between atoms: _489  and  _490
REMARK  190  A    between atoms: _493  and  _495
REMARK  191  A    between atoms: _495  and  _496
REMARK  192  A    between atoms: _495  and  _498
REMARK  193  A    between atoms: _498  and  _499
REMARK  194  A    between atoms: _502  and  _504
REMARK  195  A    between atoms: _504  and  _505
REMARK  196  A    between atoms: _507  and  _509
REMARK  197  A    between atoms: _509  and  _510
REMARK  198  A    between atoms: _512  and  _514
REMARK  199  A    between atoms: _514  and  _515
REMARK  200  A    between atoms: _514  and  _517
REMARK  201  A    between atoms: _517  and  _518
REMARK  202  A    between atoms: _518  and  _519
REMARK  203  A    between atoms: _522  and  _524
REMARK  204  A    between atoms: _524  and  _525
REMARK  205  A    between atoms: _524  and  _527
REMARK  206  A    between atoms: _527  and  _528
REMARK  207  A    between atoms: _531  and  _533
REMARK  208  A    between atoms: _533  and  _534
REMARK  209  A    between atoms: _533  and  _536
REMARK  210  A    between atoms: _536  and  _537
REMARK  211  A    between atoms: _543  and  _545
REMARK  212  A    between atoms: _545  and  _546
REMARK  213  A    between atoms: _549  and  _551
REMARK  214  A    between atoms: _551  and  _552
REMARK  215  A    between atoms: _551  and  _554
REMARK  216  A    between atoms: _554  and  _555
REMARK  217  A    between atoms: _560  and  _562
REMARK  218  A    between atoms: _562  and  _563
REMARK  219  A    between atoms: _562  and  _565
REMARK  220  A    between atoms: _565  and  _566
REMARK  221  A    between atoms: _571  and  _573
REMARK  222  A    between atoms: _573  and  _574
REMARK  223  A    between atoms: _573  and  _576
REMARK  224  A    between atoms: _576  and  _577
REMARK  225  A    between atoms: _580  and  _582
REMARK  226  A    between atoms: _582  and  _583
REMARK  227  A    between atoms: _582  and  _585
REMARK  228  A    between atoms: _585  and  _586
REMARK  229  A    between atoms: _591  and  _593
REMARK  230  A    between atoms: _593  and  _594
REMARK  231  A    between atoms: _593  and  _596
REMARK  232  A    between atoms: _596  and  _597
REMARK  233  A    between atoms: _597  and  _598
REMARK  234  A    between atoms: _598  and  _599
REMARK  235  A    between atoms: _608  and  _610
REMARK  236  A    between atoms: _610  and  _611
REMARK  237  A    between atoms: _613  and  _615
REMARK  238  A    between atoms: _615  and  _616
REMARK  239  A    between atoms: _615  and  _618
REMARK  240  A    between atoms: _618  and  _619
REMARK  241  A    between atoms: _624  and  _626
REMARK  242  A    between atoms: _626  and  _627
REMARK  243  A    between atoms: _629  and  _631
REMARK  244  A    between atoms: _631  and  _632
REMARK  245  A    between atoms: _635  and  _637
REMARK  246  A    between atoms: _637  and  _638
REMARK  247  A    between atoms: _640  and  _642
REMARK  248  A    between atoms: _642  and  _643
REMARK  249  A    between atoms: _645  and  _647
REMARK  250  A    between atoms: _647  and  _648
REMARK  251  A    between atoms: _651  and  _653
REMARK  252  A    between atoms: _653  and  _654
REMARK  253  A    between atoms: _653  and  _656
REMARK  254  A    between atoms: _656  and  _657
REMARK  255  A    between atoms: _657  and  _658
REMARK  256  A    between atoms: _658  and  _659
REMARK  257  A    between atoms: _668  and  _670
REMARK  258  A    between atoms: _670  and  _671
REMARK  259  A    between atoms: _670  and  _673
REMARK  260  A    between atoms: _673  and  _674
REMARK  261  A    between atoms: _677  and  _679
REMARK  262  A    between atoms: _679  and  _680
REMARK  263  A    between atoms: _679  and  _682
REMARK  264  A    between atoms: _682  and  _683
REMARK                            x       y       z     vdW  Elec       q    Type
REMARK                         _______ _______ _______ _____ _____    ______ ____
ROOT
ATOM      1  O   HOH     1      -2.380 -20.960 -19.587  0.00  0.00    +0.000 OA
ENDROOT
TORSDOF 0
REMARK  Name = ../refined-set-2016/3old/3old_pocket.pdb
REMARK  264 active torsions:
REMARK  status: ('A' for Active; 'I' for Inactive)
REMARK    1  A    between atoms: _1  and  _3
REMARK    2  A    between atoms: _3  and  _4
REMARK    3  A    between atoms: _3  and  _6
REMARK    4  A    between atoms: _6  and  _7
REMARK    5  A    between atoms: _12  and  _14
REMARK    6  A    between atoms: _14  and  _15
REMARK    7  A    between atoms: _14  and  _17
REMARK    8  A    between atoms: _17  and  _18
REMARK    9  A    between atoms: _24  and  _26
REMARK   10  A    between atoms: _26  and  _27
REMARK   11  A    between atoms: _26  and  _29
REMARK   12  A    between atoms: _29  and  _30
REMARK   13  A    between atoms: _30  and  _31
REMARK   14  A    between atoms: _37  and  _38
REMARK   15  A    between atoms: _43  and  _45
REMARK   16  A    between atoms: _45  and  _46
REMARK   17  A    between atoms: _45  and  _48
REMARK   18  A    between atoms: _48  and  _49
REMARK   19  A    between atoms: _54  and  _56
REMARK   20  A    between atoms: _56  and  _57
REMARK   21  A    between atoms: _56  and  _59
REMARK   22  A    between atoms: _62  and  _64
REMARK   23  A    between atoms: _64  and  _65
REMARK   24  A    between atoms: _64  and  _67
REMARK   25  A    between atoms: _67  and  _68
REMARK   26  A    between atoms: _72  and  _73
REMARK   27  A    between atoms: _79  and  _80
REMARK   28  A    between atoms: _85  and  _87
REMARK   29  A    between atoms: _87  and  _88
REMARK   30  A    between atoms: _87  and  _90
REMARK   31  A    between atoms: _90  and  _91
REMARK   32  A    between atoms: _101  and  _103
REMARK   33  A    between atoms: _103  and  _104
REMARK   34  A    between atoms: _103  and  _106
REMARK   35  A    between atoms: _106  and  _107
REMARK   36  A    between atoms: _117  and  _119
REMARK   37  A    between atoms: _119  and  _120
REMARK   38  A    between atoms: _119  and  _122
REMARK   39  A    between atoms: _122  and  _123
REMARK   40  A    between atoms: _123  and  _124
REMARK   41  A    between atoms: _127  and  _129
REMARK   42  A    between atoms: _129  and  _130
REMARK   43  A    between atoms: _129  and  _132
REMARK   44  A    between atoms: _132  and  _133
REMARK   45  A    between atoms: _133  and  _134
REMARK   46  A    between atoms: _134  and  _135
REMARK   47  A    between atoms: _144  and  _146
REMARK   48  A    between atoms: _146  and  _147
REMARK   49  A    between atoms: _146  and  _149
REMARK   50  A    between atoms: _149  and  _150
REMARK   51  A    between atoms: _155  and  _156
REMARK   52  A    between atoms: _158  and  _160
REMARK   53  A    between atoms: _160  and  _161
REMARK   54  A    between atoms: _160  and  _163
REMARK   55  A    between atoms: _163  and  _164
REMARK   56  A    between atoms: _164  and  _165
REMARK   57  A    between atoms: _171  and  _172
REMARK   58  A    between atoms: _177  and  _179
REMARK   59  A    between atoms: _179  and  _180
REMARK   60  A    between atoms: _179  and  _182
REMARK   61  A    between atoms: _182  and  _183
REMARK   62  A    between atoms: _186  and  _188
REMARK   63  A    between atoms: _188  and  _189
REMARK   64  A    between atoms: _192  and  _194
REMARK   65  A    between atoms: _194  and  _195
REMARK   66  A    between atoms: _194  and  _197
REMARK   67  A    between atoms: _200  and  _202
REMARK   68  A    between atoms: _202  and  _203
REMARK   69  A    between atoms: _202  and  _205
REMARK   70  A    between atoms: _205  and  _206
REMARK   71  A    between atoms: _209  and  _211
REMARK   72  A    between atoms: _211  and  _212
REMARK   73  A    between atoms: _211  and  _214
REMARK   74  A    between atoms: _214  and  _215
REMARK   75  A    between atoms: _220  and  _222
REMARK   76  A    between atoms: _222  and  _223
REMARK   77  A    between atoms: _222  and  _225
REMARK   78  A    between atoms: _225  and  _226
REMARK   79  A    between atoms: _231  and  _233
REMARK   80  A    between atoms: _233  and  _234
REMARK   81  A    between atoms: _233  and  _236
REMARK   82  A    between atoms: _236  and  _237
REMARK   83  A    between atoms: _237  and  _238
REMARK   84  A    between atoms: _240  and  _242
REMARK   85  A    between atoms: _242  and  _243
REMARK   86  A    between atoms: _242  and  _245
REMARK   87  A    between atoms: _247  and  _249
REMARK   88  A    between atoms: _249  and  _250
REMARK   89  A    between atoms: _252  and  _254
REMARK   90  A    between atoms: _254  and  _255
REMARK   91  A    between atoms: _254  and  _257
REMARK   92  A    between atoms: _257  and  _258
REMARK   93  A    between atoms: _263  and  _265
REMARK   94  A    between atoms: _265  and  _266
REMARK   95  A    between atoms: _269  and  _271
REMARK   96  A    between atoms: _271  and  _272
REMARK   97  A    between atoms: _271  and  _274
REMARK   98  A    between atoms: _277  and  _279
REMARK   99  A    between atoms: _279  and  _280
REMARK  100  A    between atoms: _279  and  _282
REMARK  101  A    between atoms: _282  and  _283
REMARK  102  A    between atoms: _286  and  _288
REMARK  103  A    between atoms: _288  and  _289
REMARK  104  A    between atoms: _288  and  _291
REMARK  105  A    between atoms: _291  and  _292
REMARK  106  A    between atoms: _295  and  _297
REMARK  107  A    between atoms: _297  and  _298
REMARK  108  A    between atoms: _297  and  _300
REMARK  109  A    between atoms: _300  and  _301
REMARK  110  A    between atoms: _306  and  _307
REMARK  111  A    between atoms: _309  and  _311
REMARK  112  A    between atoms: _311  and  _312
REMARK  113  A    between atoms: _311  and  _314
REMARK  114  A    between atoms: _317  and  _319
REMARK  115  A    between atoms: _319  and  _320
REMARK  116  A    between atoms: _319  and  _322
REMARK  117  A    between atoms: _322  and  _323
REMARK  118  A    between atoms: _323  and  _324
REMARK  119  A    between atoms: _324  and  _325
REMARK  120  A    between atoms: _334  and  _336
REMARK  121  A    between atoms: _336  and  _337
REMARK  122  A    between atoms: _336  and  _339
REMARK  123  A    between atoms: _339  and  _340
REMARK  124  A    between atoms: _343  and  _345
REMARK  125  A    between atoms: _345  and  _346
REMARK  126  A    between atoms: _345  and  _348
REMARK  127  A    between atoms: _348  and  _349
REMARK  128  A    between atoms: _352  and  _354
REMARK  129  A    between atoms: _354  and  _355
REMARK  130  A    between atoms: _357  and  _359
REMARK  131  A    between atoms: _359  and  _360
REMARK  132  A    between atoms: _359  and  _362
REMARK  133  A    between atoms: _362  and  _363
REMARK  134  A    between atoms: _366  and  _368
REMARK  135  A    between atoms: _368  and  _369
REMARK  136  A    between atoms: _368  and  _371
REMARK  137  A    between atoms: _371  and  _372
REMARK  138  A    between atoms: _375  and  _377
REMARK  139  A    between atoms: _377  and  _378
REMARK  140  A    between atoms: _377  and  _380
REMARK  141  A    between atoms: _380  and  _381
REMARK  142  A    between atoms: _381  and  _382
REMARK  143  A    between atoms: _382  and  _383
REMARK  144  A    between atoms: _392  and  _394
REMARK  145  A    between atoms: _394  and  _395
REMARK  146  A    between atoms: _394  and  _397
REMARK  147  A    between atoms: _397  and  _398
REMARK  148  A    between atoms: _401  and  _403
REMARK  149  A    between atoms: _403  and  _404
REMARK  150  A    between atoms: _403  and  _406
REMARK  151  A    between atoms: _406  and  _407
REMARK  152  A    between atoms: _410  and  _412
REMARK  153  A    between atoms: _412  and  _413
REMARK  154  A    between atoms: _416  and  _418
REMARK  155  A    between atoms: _418  and  _419
REMARK  156  A    between atoms: _418  and  _421
REMARK  157  A    between atoms: _421  and  _422
REMARK  158  A    between atoms: _424  and  _426
REMARK  159  A    between atoms: _426  and  _427
REMARK  160  A    between atoms: _426  and  _429
REMARK  161  A    between atoms: _429  and  _430
REMARK  162  A    between atoms: _430  and  _431
REMARK  163  A    between atoms: _431  and  _432
REMARK  164  A    between atoms: _432  and  _433
REMARK  165  A    between atoms: _437  and  _439
REMARK  166  A    between atoms: _439  and  _440
REMARK  167  A    between atoms: _439  and  _442
REMARK  168  A    between atoms: _442  and  _443
REMARK  169  A    between atoms: _448  and  _450
REMARK  170  A    between atoms: _450  and  _451
REMARK  171  A    between atoms: _450  and  _453
REMARK  172  A    between atoms: _453  and  _454
REMARK  173  A    between atoms: _454  and  _455
REMARK  174  A    between atoms: _457  and  _459
REMARK  175  A    between atoms: _459  and  _460
REMARK  176  A    between atoms: _459  and  _462
REMARK  177  A    between atoms: _462  and  _463
REMARK  178  A    between atoms: _463  and  _464
REMARK  179  A    between atoms: _467  and  _469
REMARK  180  A    between atoms: _469  and  _470
REMARK  181  A    between atoms: _469  and  _472
REMARK  182  A    between atoms: _475  and  _477
REMARK  183  A    between atoms: _477  and  _478
REMARK  184  A    between atoms: _477  and  _480
REMARK  185  A    between atoms: _480  and  _481
REMARK  186  A    between atoms: _484  and  _486
REMARK  187  A    between atoms: _486  and  _487
REMARK  188  A    between atoms: _486  and  _489
REMARK  189  A    between atoms: _489  and  _490
REMARK  190  A    between atoms: _493  and  _495
REMARK  191  A    between atoms: _495  and  _496
REMARK  192  A    between atoms: _495  and  _498
REMARK  193  A    between atoms: _498  and  _499
REMARK  194  A    between atoms: _502  and  _504
REMARK  195  A    between atoms: _504  and  _505
REMARK  196  A    between atoms: _507  and  _509
REMARK  197  A    between atoms: _509  and  _510
REMARK  198  A    between atoms: _512  and  _514
REMARK  199  A    between atoms: _514  and  _515
REMARK  200  A    between atoms: _514  and  _517
REMARK  201  A    between atoms: _517  and  _518
REMARK  202  A    between atoms: _518  and  _519
REMARK  203  A    between atoms: _522  and  _524
REMARK  204  A    between atoms: _524  and  _525
REMARK  205  A    between atoms: _524  and  _527
REMARK  206  A    between atoms: _527  and  _528
REMARK  207  A    between atoms: _531  and  _533
REMARK  208  A    between atoms: _533  and  _534
REMARK  209  A    between atoms: _533  and  _536
REMARK  210  A    between atoms: _536  and  _537
REMARK  211  A    between atoms: _543  and  _545
REMARK  212  A    between atoms: _545  and  _546
REMARK  213  A    between atoms: _549  and  _551
REMARK  214  A    between atoms: _551  and  _552
REMARK  215  A    between atoms: _551  and  _554
REMARK  216  A    between atoms: _554  and  _555
REMARK  217  A    between atoms: _560  and  _562
REMARK  218  A    between atoms: _562  and  _563
REMARK  219  A    between atoms: _562  and  _565
REMARK  220  A    between atoms: _565  and  _566
REMARK  221  A    between atoms: _571  and  _573
REMARK  222  A    between atoms: _573  and  _574
REMARK  223  A    between atoms: _573  and  _576
REMARK  224  A    between atoms: _576  and  _577
REMARK  225  A    between atoms: _580  and  _582
REMARK  226  A    between atoms: _582  and  _583
REMARK  227  A    between atoms: _582  and  _585
REMARK  228  A    between atoms: _585  and  _586
REMARK  229  A    between atoms: _591  and  _593
REMARK  230  A    between atoms: _593  and  _594
REMARK  231  A    between atoms: _593  and  _596
REMARK  232  A    between atoms: _596  and  _597
REMARK  233  A    between atoms: _597  and  _598
REMARK  234  A    between atoms: _598  and  _599
REMARK  235  A    between atoms: _608  and  _610
REMARK  236  A    between atoms: _610  and  _611
REMARK  237  A    between atoms: _613  and  _615
REMARK  238  A    between atoms: _615  and  _616
REMARK  239  A    between atoms: _615  and  _618
REMARK  240  A    between atoms: _618  and  _619
REMARK  241  A    between atoms: _624  and  _626
REMARK  242  A    between atoms: _626  and  _627
REMARK  243  A    between atoms: _629  and  _631
REMARK  244  A    between atoms: _631  and  _632
REMARK  245  A    between atoms: _635  and  _637
REMARK  246  A    between atoms: _637  and  _638
REMARK  247  A    between atoms: _640  and  _642
REMARK  248  A    between atoms: _642  and  _643
REMARK  249  A    between atoms: _645  and  _647
REMARK  250  A    between atoms: _647  and  _648
REMARK  251  A    between atoms: _651  and  _653
REMARK  252  A    between atoms: _653  and  _654
REMARK  253  A    between atoms: _653  and  _656
REMARK  254  A    between atoms: _656  and  _657
REMARK  255  A    between atoms: _657  and  _658
REMARK  256  A    between atoms: _658  and  _659
REMARK  257  A    between atoms: _668  and  _670
REMARK  258  A    between atoms: _670  and  _671
REMARK  259  A    between atoms: _670  and  _673
REMARK  260  A    between atoms: _673  and  _674
REMARK  261  A    between atoms: _677  and  _679
REMARK  262  A    between atoms: _679  and  _680
REMARK  263  A    between atoms: _679  and  _682
REMARK  264  A    between atoms: _682  and  _683
REMARK                            x       y       z     vdW  Elec       q    Type
REMARK                         _______ _______ _______ _____ _____    ______ ____
ROOT
ATOM      1  O   HOH     1      -0.310 -25.526 -28.446  0.00  0.00    +0.000 OA
ENDROOT
TORSDOF 0
REMARK  Name = ../refined-set-2016/3old/3old_pocket.pdb
REMARK  264 active torsions:
REMARK  status: ('A' for Active; 'I' for Inactive)
REMARK    1  A    between atoms: _1  and  _3
REMARK    2  A    between atoms: _3  and  _4
REMARK    3  A    between atoms: _3  and  _6
REMARK    4  A    between atoms: _6  and  _7
REMARK    5  A    between atoms: _12  and  _14
REMARK    6  A    between atoms: _14  and  _15
REMARK    7  A    between atoms: _14  and  _17
REMARK    8  A    between atoms: _17  and  _18
REMARK    9  A    between atoms: _24  and  _26
REMARK   10  A    between atoms: _26  and  _27
REMARK   11  A    between atoms: _26  and  _29
REMARK   12  A    between atoms: _29  and  _30
REMARK   13  A    between atoms: _30  and  _31
REMARK   14  A    between atoms: _37  and  _38
REMARK   15  A    between atoms: _43  and  _45
REMARK   16  A    between atoms: _45  and  _46
REMARK   17  A    between atoms: _45  and  _48
REMARK   18  A    between atoms: _48  and  _49
REMARK   19  A    between atoms: _54  and  _56
REMARK   20  A    between atoms: _56  and  _57
REMARK   21  A    between atoms: _56  and  _59
REMARK   22  A    between atoms: _62  and  _64
REMARK   23  A    between atoms: _64  and  _65
REMARK   24  A    between atoms: _64  and  _67
REMARK   25  A    between atoms: _67  and  _68
REMARK   26  A    between atoms: _72  and  _73
REMARK   27  A    between atoms: _79  and  _80
REMARK   28  A    between atoms: _85  and  _87
REMARK   29  A    between atoms: _87  and  _88
REMARK   30  A    between atoms: _87  and  _90
REMARK   31  A    between atoms: _90  and  _91
REMARK   32  A    between atoms: _101  and  _103
REMARK   33  A    between atoms: _103  and  _104
REMARK   34  A    between atoms: _103  and  _106
REMARK   35  A    between atoms: _106  and  _107
REMARK   36  A    between atoms: _117  and  _119
REMARK   37  A    between atoms: _119  and  _120
REMARK   38  A    between atoms: _119  and  _122
REMARK   39  A    between atoms: _122  and  _123
REMARK   40  A    between atoms: _123  and  _124
REMARK   41  A    between atoms: _127  and  _129
REMARK   42  A    between atoms: _129  and  _130
REMARK   43  A    between atoms: _129  and  _132
REMARK   44  A    between atoms: _132  and  _133
REMARK   45  A    between atoms: _133  and  _134
REMARK   46  A    between atoms: _134  and  _135
REMARK   47  A    between atoms: _144  and  _146
REMARK   48  A    between atoms: _146  and  _147
REMARK   49  A    between atoms: _146  and  _149
REMARK   50  A    between atoms: _149  and  _150
REMARK   51  A    between atoms: _155  and  _156
REMARK   52  A    between atoms: _158  and  _160
REMARK   53  A    between atoms: _160  and  _161
REMARK   54  A    between atoms: _160  and  _163
REMARK   55  A    between atoms: _163  and  _164
REMARK   56  A    between atoms: _164  and  _165
REMARK   57  A    between atoms: _171  and  _172
REMARK   58  A    between atoms: _177  and  _179
REMARK   59  A    between atoms: _179  and  _180
REMARK   60  A    between atoms: _179  and  _182
REMARK   61  A    between atoms: _182  and  _183
REMARK   62  A    between atoms: _186  and  _188
REMARK   63  A    between atoms: _188  and  _189
REMARK   64  A    between atoms: _192  and  _194
REMARK   65  A    between atoms: _194  and  _195
REMARK   66  A    between atoms: _194  and  _197
REMARK   67  A    between atoms: _200  and  _202
REMARK   68  A    between atoms: _202  and  _203
REMARK   69  A    between atoms: _202  and  _205
REMARK   70  A    between atoms: _205  and  _206
REMARK   71  A    between atoms: _209  and  _211
REMARK   72  A    between atoms: _211  and  _212
REMARK   73  A    between atoms: _211  and  _214
REMARK   74  A    between atoms: _214  and  _215
REMARK   75  A    between atoms: _220  and  _222
REMARK   76  A    between atoms: _222  and  _223
REMARK   77  A    between atoms: _222  and  _225
REMARK   78  A    between atoms: _225  and  _226
REMARK   79  A    between atoms: _231  and  _233
REMARK   80  A    between atoms: _233  and  _234
REMARK   81  A    between atoms: _233  and  _236
REMARK   82  A    between atoms: _236  and  _237
REMARK   83  A    between atoms: _237  and  _238
REMARK   84  A    between atoms: _240  and  _242
REMARK   85  A    between atoms: _242  and  _243
REMARK   86  A    between atoms: _242  and  _245
REMARK   87  A    between atoms: _247  and  _249
REMARK   88  A    between atoms: _249  and  _250
REMARK   89  A    between atoms: _252  and  _254
REMARK   90  A    between atoms: _254  and  _255
REMARK   91  A    between atoms: _254  and  _257
REMARK   92  A    between atoms: _257  and  _258
REMARK   93  A    between atoms: _263  and  _265
REMARK   94  A    between atoms: _265  and  _266
REMARK   95  A    between atoms: _269  and  _271
REMARK   96  A    between atoms: _271  and  _272
REMARK   97  A    between atoms: _271  and  _274
REMARK   98  A    between atoms: _277  and  _279
REMARK   99  A    between atoms: _279  and  _280
REMARK  100  A    between atoms: _279  and  _282
REMARK  101  A    between atoms: _282  and  _283
REMARK  102  A    between atoms: _286  and  _288
REMARK  103  A    between atoms: _288  and  _289
REMARK  104  A    between atoms: _288  and  _291
REMARK  105  A    between atoms: _291  and  _292
REMARK  106  A    between atoms: _295  and  _297
REMARK  107  A    between atoms: _297  and  _298
REMARK  108  A    between atoms: _297  and  _300
REMARK  109  A    between atoms: _300  and  _301
REMARK  110  A    between atoms: _306  and  _307
REMARK  111  A    between atoms: _309  and  _311
REMARK  112  A    between atoms: _311  and  _312
REMARK  113  A    between atoms: _311  and  _314
REMARK  114  A    between atoms: _317  and  _319
REMARK  115  A    between atoms: _319  and  _320
REMARK  116  A    between atoms: _319  and  _322
REMARK  117  A    between atoms: _322  and  _323
REMARK  118  A    between atoms: _323  and  _324
REMARK  119  A    between atoms: _324  and  _325
REMARK  120  A    between atoms: _334  and  _336
REMARK  121  A    between atoms: _336  and  _337
REMARK  122  A    between atoms: _336  and  _339
REMARK  123  A    between atoms: _339  and  _340
REMARK  124  A    between atoms: _343  and  _345
REMARK  125  A    between atoms: _345  and  _346
REMARK  126  A    between atoms: _345  and  _348
REMARK  127  A    between atoms: _348  and  _349
REMARK  128  A    between atoms: _352  and  _354
REMARK  129  A    between atoms: _354  and  _355
REMARK  130  A    between atoms: _357  and  _359
REMARK  131  A    between atoms: _359  and  _360
REMARK  132  A    between atoms: _359  and  _362
REMARK  133  A    between atoms: _362  and  _363
REMARK  134  A    between atoms: _366  and  _368
REMARK  135  A    between atoms: _368  and  _369
REMARK  136  A    between atoms: _368  and  _371
REMARK  137  A    between atoms: _371  and  _372
REMARK  138  A    between atoms: _375  and  _377
REMARK  139  A    between atoms: _377  and  _378
REMARK  140  A    between atoms: _377  and  _380
REMARK  141  A    between atoms: _380  and  _381
REMARK  142  A    between atoms: _381  and  _382
REMARK  143  A    between atoms: _382  and  _383
REMARK  144  A    between atoms: _392  and  _394
REMARK  145  A    between atoms: _394  and  _395
REMARK  146  A    between atoms: _394  and  _397
REMARK  147  A    between atoms: _397  and  _398
REMARK  148  A    between atoms: _401  and  _403
REMARK  149  A    between atoms: _403  and  _404
REMARK  150  A    between atoms: _403  and  _406
REMARK  151  A    between atoms: _406  and  _407
REMARK  152  A    between atoms: _410  and  _412
REMARK  153  A    between atoms: _412  and  _413
REMARK  154  A    between atoms: _416  and  _418
REMARK  155  A    between atoms: _418  and  _419
REMARK  156  A    between atoms: _418  and  _421
REMARK  157  A    between atoms: _421  and  _422
REMARK  158  A    between atoms: _424  and  _426
REMARK  159  A    between atoms: _426  and  _427
REMARK  160  A    between atoms: _426  and  _429
REMARK  161  A    between atoms: _429  and  _430
REMARK  162  A    between atoms: _430  and  _431
REMARK  163  A    between atoms: _431  and  _432
REMARK  164  A    between atoms: _432  and  _433
REMARK  165  A    between atoms: _437  and  _439
REMARK  166  A    between atoms: _439  and  _440
REMARK  167  A    between atoms: _439  and  _442
REMARK  168  A    between atoms: _442  and  _443
REMARK  169  A    between atoms: _448  and  _450
REMARK  170  A    between atoms: _450  and  _451
REMARK  171  A    between atoms: _450  and  _453
REMARK  172  A    between atoms: _453  and  _454
REMARK  173  A    between atoms: _454  and  _455
REMARK  174  A    between atoms: _457  and  _459
REMARK  175  A    between atoms: _459  and  _460
REMARK  176  A    between atoms: _459  and  _462
REMARK  177  A    between atoms: _462  and  _463
REMARK  178  A    between atoms: _463  and  _464
REMARK  179  A    between atoms: _467  and  _469
REMARK  180  A    between atoms: _469  and  _470
REMARK  181  A    between atoms: _469  and  _472
REMARK  182  A    between atoms: _475  and  _477
REMARK  183  A    between atoms: _477  and  _478
REMARK  184  A    between atoms: _477  and  _480
REMARK  185  A    between atoms: _480  and  _481
REMARK  186  A    between atoms: _484  and  _486
REMARK  187  A    between atoms: _486  and  _487
REMARK  188  A    between atoms: _486  and  _489
REMARK  189  A    between atoms: _489  and  _490
REMARK  190  A    between atoms: _493  and  _495
REMARK  191  A    between atoms: _495  and  _496
REMARK  192  A    between atoms: _495  and  _498
REMARK  193  A    between atoms: _498  and  _499
REMARK  194  A    between atoms: _502  and  _504
REMARK  195  A    between atoms: _504  and  _505
REMARK  196  A    between atoms: _507  and  _509
REMARK  197  A    between atoms: _509  and  _510
REMARK  198  A    between atoms: _512  and  _514
REMARK  199  A    between atoms: _514  and  _515
REMARK  200  A    between atoms: _514  and  _517
REMARK  201  A    between atoms: _517  and  _518
REMARK  202  A    between atoms: _518  and  _519
REMARK  203  A    between atoms: _522  and  _524
REMARK  204  A    between atoms: _524  and  _525
REMARK  205  A    between atoms: _524  and  _527
REMARK  206  A    between atoms: _527  and  _528
REMARK  207  A    between atoms: _531  and  _533
REMARK  208  A    between atoms: _533  and  _534
REMARK  209  A    between atoms: _533  and  _536
REMARK  210  A    between atoms: _536  and  _537
REMARK  211  A    between atoms: _543  and  _545
REMARK  212  A    between atoms: _545  and  _546
REMARK  213  A    between atoms: _549  and  _551
REMARK  214  A    between atoms: _551  and  _552
REMARK  215  A    between atoms: _551  and  _554
REMARK  216  A    between atoms: _554  and  _555
REMARK  217  A    between atoms: _560  and  _562
REMARK  218  A    between atoms: _562  and  _563
REMARK  219  A    between atoms: _562  and  _565
REMARK  220  A    between atoms: _565  and  _566
REMARK  221  A    between atoms: _571  and  _573
REMARK  222  A    between atoms: _573  and  _574
REMARK  223  A    between atoms: _573  and  _576
REMARK  224  A    between atoms: _576  and  _577
REMARK  225  A    between atoms: _580  and  _582
REMARK  226  A    between atoms: _582  and  _583
REMARK  227  A    between atoms: _582  and  _585
REMARK  228  A    between atoms: _585  and  _586
REMARK  229  A    between atoms: _591  and  _593
REMARK  230  A    between atoms: _593  and  _594
REMARK  231  A    between atoms: _593  and  _596
REMARK  232  A    between atoms: _596  and  _597
REMARK  233  A    between atoms: _597  and  _598
REMARK  234  A    between atoms: _598  and  _599
REMARK  235  A    between atoms: _608  and  _610
REMARK  236  A    between atoms: _610  and  _611
REMARK  237  A    between atoms: _613  and  _615
REMARK  238  A    between atoms: _615  and  _616
REMARK  239  A    between atoms: _615  and  _618
REMARK  240  A    between atoms: _618  and  _619
REMARK  241  A    between atoms: _624  and  _626
REMARK  242  A    between atoms: _626  and  _627
REMARK  243  A    between atoms: _629  and  _631
REMARK  244  A    between atoms: _631  and  _632
REMARK  245  A    between atoms: _635  and  _637
REMARK  246  A    between atoms: _637  and  _638
REMARK  247  A    between atoms: _640  and  _642
REMARK  248  A    between atoms: _642  and  _643
REMARK  249  A    between atoms: _645  and  _647
REMARK  250  A    between atoms: _647  and  _648
REMARK  251  A    between atoms: _651  and  _653
REMARK  252  A    between atoms: _653  and  _654
REMARK  253  A    between atoms: _653  and  _656
REMARK  254  A    between atoms: _656  and  _657
REMARK  255  A    between atoms: _657  and  _658
REMARK  256  A    between atoms: _658  and  _659
REMARK  257  A    between atoms: _668  and  _670
REMARK  258  A    between atoms: _670  and  _671
REMARK  259  A    between atoms: _670  and  _673
REMARK  260  A    between atoms: _673  and  _674
REMARK  261  A    between atoms: _677  and  _679
REMARK  262  A    between atoms: _679  and  _680
REMARK  263  A    between atoms: _679  and  _682
REMARK  264  A    between atoms: _682  and  _683
REMARK                            x       y       z     vdW  Elec       q    Type
REMARK                         _______ _______ _______ _____ _____    ______ ____
ROOT
ATOM      1  O   HOH     1       4.609 -12.433 -23.408  0.00  0.00    +0.000 OA
ENDROOT
TORSDOF 0
REMARK  Name = ../refined-set-2016/3old/3old_pocket.pdb
REMARK  264 active torsions:
REMARK  status: ('A' for Active; 'I' for Inactive)
REMARK    1  A    between atoms: _1  and  _3
REMARK    2  A    between atoms: _3  and  _4
REMARK    3  A    between atoms: _3  and  _6
REMARK    4  A    between atoms: _6  and  _7
REMARK    5  A    between atoms: _12  and  _14
REMARK    6  A    between atoms: _14  and  _15
REMARK    7  A    between atoms: _14  and  _17
REMARK    8  A    between atoms: _17  and  _18
REMARK    9  A    between atoms: _24  and  _26
REMARK   10  A    between atoms: _26  and  _27
REMARK   11  A    between atoms: _26  and  _29
REMARK   12  A    between atoms: _29  and  _30
REMARK   13  A    between atoms: _30  and  _31
REMARK   14  A    between atoms: _37  and  _38
REMARK   15  A    between atoms: _43  and  _45
REMARK   16  A    between atoms: _45  and  _46
REMARK   17  A    between atoms: _45  and  _48
REMARK   18  A    between atoms: _48  and  _49
REMARK   19  A    between atoms: _54  and  _56
REMARK   20  A    between atoms: _56  and  _57
REMARK   21  A    between atoms: _56  and  _59
REMARK   22  A    between atoms: _62  and  _64
REMARK   23  A    between atoms: _64  and  _65
REMARK   24  A    between atoms: _64  and  _67
REMARK   25  A    between atoms: _67  and  _68
REMARK   26  A    between atoms: _72  and  _73
REMARK   27  A    between atoms: _79  and  _80
REMARK   28  A    between atoms: _85  and  _87
REMARK   29  A    between atoms: _87  and  _88
REMARK   30  A    between atoms: _87  and  _90
REMARK   31  A    between atoms: _90  and  _91
REMARK   32  A    between atoms: _101  and  _103
REMARK   33  A    between atoms: _103  and  _104
REMARK   34  A    between atoms: _103  and  _106
REMARK   35  A    between atoms: _106  and  _107
REMARK   36  A    between atoms: _117  and  _119
REMARK   37  A    between atoms: _119  and  _120
REMARK   38  A    between atoms: _119  and  _122
REMARK   39  A    between atoms: _122  and  _123
REMARK   40  A    between atoms: _123  and  _124
REMARK   41  A    between atoms: _127  and  _129
REMARK   42  A    between atoms: _129  and  _130
REMARK   43  A    between atoms: _129  and  _132
REMARK   44  A    between atoms: _132  and  _133
REMARK   45  A    between atoms: _133  and  _134
REMARK   46  A    between atoms: _134  and  _135
REMARK   47  A    between atoms: _144  and  _146
REMARK   48  A    between atoms: _146  and  _147
REMARK   49  A    between atoms: _146  and  _149
REMARK   50  A    between atoms: _149  and  _150
REMARK   51  A    between atoms: _155  and  _156
REMARK   52  A    between atoms: _158  and  _160
REMARK   53  A    between atoms: _160  and  _161
REMARK   54  A    between atoms: _160  and  _163
REMARK   55  A    between atoms: _163  and  _164
REMARK   56  A    between atoms: _164  and  _165
REMARK   57  A    between atoms: _171  and  _172
REMARK   58  A    between atoms: _177  and  _179
REMARK   59  A    between atoms: _179  and  _180
REMARK   60  A    between atoms: _179  and  _182
REMARK   61  A    between atoms: _182  and  _183
REMARK   62  A    between atoms: _186  and  _188
REMARK   63  A    between atoms: _188  and  _189
REMARK   64  A    between atoms: _192  and  _194
REMARK   65  A    between atoms: _194  and  _195
REMARK   66  A    between atoms: _194  and  _197
REMARK   67  A    between atoms: _200  and  _202
REMARK   68  A    between atoms: _202  and  _203
REMARK   69  A    between atoms: _202  and  _205
REMARK   70  A    between atoms: _205  and  _206
REMARK   71  A    between atoms: _209  and  _211
REMARK   72  A    between atoms: _211  and  _212
REMARK   73  A    between atoms: _211  and  _214
REMARK   74  A    between atoms: _214  and  _215
REMARK   75  A    between atoms: _220  and  _222
REMARK   76  A    between atoms: _222  and  _223
REMARK   77  A    between atoms: _222  and  _225
REMARK   78  A    between atoms: _225  and  _226
REMARK   79  A    between atoms: _231  and  _233
REMARK   80  A    between atoms: _233  and  _234
REMARK   81  A    between atoms: _233  and  _236
REMARK   82  A    between atoms: _236  and  _237
REMARK   83  A    between atoms: _237  and  _238
REMARK   84  A    between atoms: _240  and  _242
REMARK   85  A    between atoms: _242  and  _243
REMARK   86  A    between atoms: _242  and  _245
REMARK   87  A    between atoms: _247  and  _249
REMARK   88  A    between atoms: _249  and  _250
REMARK   89  A    between atoms: _252  and  _254
REMARK   90  A    between atoms: _254  and  _255
REMARK   91  A    between atoms: _254  and  _257
REMARK   92  A    between atoms: _257  and  _258
REMARK   93  A    between atoms: _263  and  _265
REMARK   94  A    between atoms: _265  and  _266
REMARK   95  A    between atoms: _269  and  _271
REMARK   96  A    between atoms: _271  and  _272
REMARK   97  A    between atoms: _271  and  _274
REMARK   98  A    between atoms: _277  and  _279
REMARK   99  A    between atoms: _279  and  _280
REMARK  100  A    between atoms: _279  and  _282
REMARK  101  A    between atoms: _282  and  _283
REMARK  102  A    between atoms: _286  and  _288
REMARK  103  A    between atoms: _288  and  _289
REMARK  104  A    between atoms: _288  and  _291
REMARK  105  A    between atoms: _291  and  _292
REMARK  106  A    between atoms: _295  and  _297
REMARK  107  A    between atoms: _297  and  _298
REMARK  108  A    between atoms: _297  and  _300
REMARK  109  A    between atoms: _300  and  _301
REMARK  110  A    between atoms: _306  and  _307
REMARK  111  A    between atoms: _309  and  _311
REMARK  112  A    between atoms: _311  and  _312
REMARK  113  A    between atoms: _311  and  _314
REMARK  114  A    between atoms: _317  and  _319
REMARK  115  A    between atoms: _319  and  _320
REMARK  116  A    between atoms: _319  and  _322
REMARK  117  A    between atoms: _322  and  _323
REMARK  118  A    between atoms: _323  and  _324
REMARK  119  A    between atoms: _324  and  _325
REMARK  120  A    between atoms: _334  and  _336
REMARK  121  A    between atoms: _336  and  _337
REMARK  122  A    between atoms: _336  and  _339
REMARK  123  A    between atoms: _339  and  _340
REMARK  124  A    between atoms: _343  and  _345
REMARK  125  A    between atoms: _345  and  _346
REMARK  126  A    between atoms: _345  and  _348
REMARK  127  A    between atoms: _348  and  _349
REMARK  128  A    between atoms: _352  and  _354
REMARK  129  A    between atoms: _354  and  _355
REMARK  130  A    between atoms: _357  and  _359
REMARK  131  A    between atoms: _359  and  _360
REMARK  132  A    between atoms: _359  and  _362
REMARK  133  A    between atoms: _362  and  _363
REMARK  134  A    between atoms: _366  and  _368
REMARK  135  A    between atoms: _368  and  _369
REMARK  136  A    between atoms: _368  and  _371
REMARK  137  A    between atoms: _371  and  _372
REMARK  138  A    between atoms: _375  and  _377
REMARK  139  A    between atoms: _377  and  _378
REMARK  140  A    between atoms: _377  and  _380
REMARK  141  A    between atoms: _380  and  _381
REMARK  142  A    between atoms: _381  and  _382
REMARK  143  A    between atoms: _382  and  _383
REMARK  144  A    between atoms: _392  and  _394
REMARK  145  A    between atoms: _394  and  _395
REMARK  146  A    between atoms: _394  and  _397
REMARK  147  A    between atoms: _397  and  _398
REMARK  148  A    between atoms: _401  and  _403
REMARK  149  A    between atoms: _403  and  _404
REMARK  150  A    between atoms: _403  and  _406
REMARK  151  A    between atoms: _406  and  _407
REMARK  152  A    between atoms: _410  and  _412
REMARK  153  A    between atoms: _412  and  _413
REMARK  154  A    between atoms: _416  and  _418
REMARK  155  A    between atoms: _418  and  _419
REMARK  156  A    between atoms: _418  and  _421
REMARK  157  A    between atoms: _421  and  _422
REMARK  158  A    between atoms: _424  and  _426
REMARK  159  A    between atoms: _426  and  _427
REMARK  160  A    between atoms: _426  and  _429
REMARK  161  A    between atoms: _429  and  _430
REMARK  162  A    between atoms: _430  and  _431
REMARK  163  A    between atoms: _431  and  _432
REMARK  164  A    between atoms: _432  and  _433
REMARK  165  A    between atoms: _437  and  _439
REMARK  166  A    between atoms: _439  and  _440
REMARK  167  A    between atoms: _439  and  _442
REMARK  168  A    between atoms: _442  and  _443
REMARK  169  A    between atoms: _448  and  _450
REMARK  170  A    between atoms: _450  and  _451
REMARK  171  A    between atoms: _450  and  _453
REMARK  172  A    between atoms: _453  and  _454
REMARK  173  A    between atoms: _454  and  _455
REMARK  174  A    between atoms: _457  and  _459
REMARK  175  A    between atoms: _459  and  _460
REMARK  176  A    between atoms: _459  and  _462
REMARK  177  A    between atoms: _462  and  _463
REMARK  178  A    between atoms: _463  and  _464
REMARK  179  A    between atoms: _467  and  _469
REMARK  180  A    between atoms: _469  and  _470
REMARK  181  A    between atoms: _469  and  _472
REMARK  182  A    between atoms: _475  and  _477
REMARK  183  A    between atoms: _477  and  _478
REMARK  184  A    between atoms: _477  and  _480
REMARK  185  A    between atoms: _480  and  _481
REMARK  186  A    between atoms: _484  and  _486
REMARK  187  A    between atoms: _486  and  _487
REMARK  188  A    between atoms: _486  and  _489
REMARK  189  A    between atoms: _489  and  _490
REMARK  190  A    between atoms: _493  and  _495
REMARK  191  A    between atoms: _495  and  _496
REMARK  192  A    between atoms: _495  and  _498
REMARK  193  A    between atoms: _498  and  _499
REMARK  194  A    between atoms: _502  and  _504
REMARK  195  A    between atoms: _504  and  _505
REMARK  196  A    between atoms: _507  and  _509
REMARK  197  A    between atoms: _509  and  _510
REMARK  198  A    between atoms: _512  and  _514
REMARK  199  A    between atoms: _514  and  _515
REMARK  200  A    between atoms: _514  and  _517
REMARK  201  A    between atoms: _517  and  _518
REMARK  202  A    between atoms: _518  and  _519
REMARK  203  A    between atoms: _522  and  _524
REMARK  204  A    between atoms: _524  and  _525
REMARK  205  A    between atoms: _524  and  _527
REMARK  206  A    between atoms: _527  and  _528
REMARK  207  A    between atoms: _531  and  _533
REMARK  208  A    between atoms: _533  and  _534
REMARK  209  A    between atoms: _533  and  _536
REMARK  210  A    between atoms: _536  and  _537
REMARK  211  A    between atoms: _543  and  _545
REMARK  212  A    between atoms: _545  and  _546
REMARK  213  A    between atoms: _549  and  _551
REMARK  214  A    between atoms: _551  and  _552
REMARK  215  A    between atoms: _551  and  _554
REMARK  216  A    between atoms: _554  and  _555
REMARK  217  A    between atoms: _560  and  _562
REMARK  218  A    between atoms: _562  and  _563
REMARK  219  A    between atoms: _562  and  _565
REMARK  220  A    between atoms: _565  and  _566
REMARK  221  A    between atoms: _571  and  _573
REMARK  222  A    between atoms: _573  and  _574
REMARK  223  A    between atoms: _573  and  _576
REMARK  224  A    between atoms: _576  and  _577
REMARK  225  A    between atoms: _580  and  _582
REMARK  226  A    between atoms: _582  and  _583
REMARK  227  A    between atoms: _582  and  _585
REMARK  228  A    between atoms: _585  and  _586
REMARK  229  A    between atoms: _591  and  _593
REMARK  230  A    between atoms: _593  and  _594
REMARK  231  A    between atoms: _593  and  _596
REMARK  232  A    between atoms: _596  and  _597
REMARK  233  A    between atoms: _597  and  _598
REMARK  234  A    between atoms: _598  and  _599
REMARK  235  A    between atoms: _608  and  _610
REMARK  236  A    between atoms: _610  and  _611
REMARK  237  A    between atoms: _613  and  _615
REMARK  238  A    between atoms: _615  and  _616
REMARK  239  A    between atoms: _615  and  _618
REMARK  240  A    between atoms: _618  and  _619
REMARK  241  A    between atoms: _624  and  _626
REMARK  242  A    between atoms: _626  and  _627
REMARK  243  A    between atoms: _629  and  _631
REMARK  244  A    between atoms: _631  and  _632
REMARK  245  A    between atoms: _635  and  _637
REMARK  246  A    between atoms: _637  and  _638
REMARK  247  A    between atoms: _640  and  _642
REMARK  248  A    between atoms: _642  and  _643
REMARK  249  A    between atoms: _645  and  _647
REMARK  250  A    between atoms: _647  and  _648
REMARK  251  A    between atoms: _651  and  _653
REMARK  252  A    between atoms: _653  and  _654
REMARK  253  A    between atoms: _653  and  _656
REMARK  254  A    between atoms: _656  and  _657
REMARK  255  A    between atoms: _657  and  _658
REMARK  256  A    between atoms: _658  and  _659
REMARK  257  A    between atoms: _668  and  _670
REMARK  258  A    between atoms: _670  and  _671
REMARK  259  A    between atoms: _670  and  _673
REMARK  260  A    between atoms: _673  and  _674
REMARK  261  A    between atoms: _677  and  _679
REMARK  262  A    between atoms: _679  and  _680
REMARK  263  A    between atoms: _679  and  _682
REMARK  264  A    between atoms: _682  and  _683
REMARK                            x       y       z     vdW  Elec       q    Type
REMARK                         _______ _______ _______ _____ _____    ______ ____
ROOT
ATOM      1  O   HOH     1      16.785  -9.986 -19.693  0.00  0.00    +0.000 OA
ENDROOT
TORSDOF 0
REMARK  Name = ../refined-set-2016/3old/3old_pocket.pdb
REMARK  264 active torsions:
REMARK  status: ('A' for Active; 'I' for Inactive)
REMARK    1  A    between atoms: _1  and  _3
REMARK    2  A    between atoms: _3  and  _4
REMARK    3  A    between atoms: _3  and  _6
REMARK    4  A    between atoms: _6  and  _7
REMARK    5  A    between atoms: _12  and  _14
REMARK    6  A    between atoms: _14  and  _15
REMARK    7  A    between atoms: _14  and  _17
REMARK    8  A    between atoms: _17  and  _18
REMARK    9  A    between atoms: _24  and  _26
REMARK   10  A    between atoms: _26  and  _27
REMARK   11  A    between atoms: _26  and  _29
REMARK   12  A    between atoms: _29  and  _30
REMARK   13  A    between atoms: _30  and  _31
REMARK   14  A    between atoms: _37  and  _38
REMARK   15  A    between atoms: _43  and  _45
REMARK   16  A    between atoms: _45  and  _46
REMARK   17  A    between atoms: _45  and  _48
REMARK   18  A    between atoms: _48  and  _49
REMARK   19  A    between atoms: _54  and  _56
REMARK   20  A    between atoms: _56  and  _57
REMARK   21  A    between atoms: _56  and  _59
REMARK   22  A    between atoms: _62  and  _64
REMARK   23  A    between atoms: _64  and  _65
REMARK   24  A    between atoms: _64  and  _67
REMARK   25  A    between atoms: _67  and  _68
REMARK   26  A    between atoms: _72  and  _73
REMARK   27  A    between atoms: _79  and  _80
REMARK   28  A    between atoms: _85  and  _87
REMARK   29  A    between atoms: _87  and  _88
REMARK   30  A    between atoms: _87  and  _90
REMARK   31  A    between atoms: _90  and  _91
REMARK   32  A    between atoms: _101  and  _103
REMARK   33  A    between atoms: _103  and  _104
REMARK   34  A    between atoms: _103  and  _106
REMARK   35  A    between atoms: _106  and  _107
REMARK   36  A    between atoms: _117  and  _119
REMARK   37  A    between atoms: _119  and  _120
REMARK   38  A    between atoms: _119  and  _122
REMARK   39  A    between atoms: _122  and  _123
REMARK   40  A    between atoms: _123  and  _124
REMARK   41  A    between atoms: _127  and  _129
REMARK   42  A    between atoms: _129  and  _130
REMARK   43  A    between atoms: _129  and  _132
REMARK   44  A    between atoms: _132  and  _133
REMARK   45  A    between atoms: _133  and  _134
REMARK   46  A    between atoms: _134  and  _135
REMARK   47  A    between atoms: _144  and  _146
REMARK   48  A    between atoms: _146  and  _147
REMARK   49  A    between atoms: _146  and  _149
REMARK   50  A    between atoms: _149  and  _150
REMARK   51  A    between atoms: _155  and  _156
REMARK   52  A    between atoms: _158  and  _160
REMARK   53  A    between atoms: _160  and  _161
REMARK   54  A    between atoms: _160  and  _163
REMARK   55  A    between atoms: _163  and  _164
REMARK   56  A    between atoms: _164  and  _165
REMARK   57  A    between atoms: _171  and  _172
REMARK   58  A    between atoms: _177  and  _179
REMARK   59  A    between atoms: _179  and  _180
REMARK   60  A    between atoms: _179  and  _182
REMARK   61  A    between atoms: _182  and  _183
REMARK   62  A    between atoms: _186  and  _188
REMARK   63  A    between atoms: _188  and  _189
REMARK   64  A    between atoms: _192  and  _194
REMARK   65  A    between atoms: _194  and  _195
REMARK   66  A    between atoms: _194  and  _197
REMARK   67  A    between atoms: _200  and  _202
REMARK   68  A    between atoms: _202  and  _203
REMARK   69  A    between atoms: _202  and  _205
REMARK   70  A    between atoms: _205  and  _206
REMARK   71  A    between atoms: _209  and  _211
REMARK   72  A    between atoms: _211  and  _212
REMARK   73  A    between atoms: _211  and  _214
REMARK   74  A    between atoms: _214  and  _215
REMARK   75  A    between atoms: _220  and  _222
REMARK   76  A    between atoms: _222  and  _223
REMARK   77  A    between atoms: _222  and  _225
REMARK   78  A    between atoms: _225  and  _226
REMARK   79  A    between atoms: _231  and  _233
REMARK   80  A    between atoms: _233  and  _234
REMARK   81  A    between atoms: _233  and  _236
REMARK   82  A    between atoms: _236  and  _237
REMARK   83  A    between atoms: _237  and  _238
REMARK   84  A    between atoms: _240  and  _242
REMARK   85  A    between atoms: _242  and  _243
REMARK   86  A    between atoms: _242  and  _245
REMARK   87  A    between atoms: _247  and  _249
REMARK   88  A    between atoms: _249  and  _250
REMARK   89  A    between atoms: _252  and  _254
REMARK   90  A    between atoms: _254  and  _255
REMARK   91  A    between atoms: _254  and  _257
REMARK   92  A    between atoms: _257  and  _258
REMARK   93  A    between atoms: _263  and  _265
REMARK   94  A    between atoms: _265  and  _266
REMARK   95  A    between atoms: _269  and  _271
REMARK   96  A    between atoms: _271  and  _272
REMARK   97  A    between atoms: _271  and  _274
REMARK   98  A    between atoms: _277  and  _279
REMARK   99  A    between atoms: _279  and  _280
REMARK  100  A    between atoms: _279  and  _282
REMARK  101  A    between atoms: _282  and  _283
REMARK  102  A    between atoms: _286  and  _288
REMARK  103  A    between atoms: _288  and  _289
REMARK  104  A    between atoms: _288  and  _291
REMARK  105  A    between atoms: _291  and  _292
REMARK  106  A    between atoms: _295  and  _297
REMARK  107  A    between atoms: _297  and  _298
REMARK  108  A    between atoms: _297  and  _300
REMARK  109  A    between atoms: _300  and  _301
REMARK  110  A    between atoms: _306  and  _307
REMARK  111  A    between atoms: _309  and  _311
REMARK  112  A    between atoms: _311  and  _312
REMARK  113  A    between atoms: _311  and  _314
REMARK  114  A    between atoms: _317  and  _319
REMARK  115  A    between atoms: _319  and  _320
REMARK  116  A    between atoms: _319  and  _322
REMARK  117  A    between atoms: _322  and  _323
REMARK  118  A    between atoms: _323  and  _324
REMARK  119  A    between atoms: _324  and  _325
REMARK  120  A    between atoms: _334  and  _336
REMARK  121  A    between atoms: _336  and  _337
REMARK  122  A    between atoms: _336  and  _339
REMARK  123  A    between atoms: _339  and  _340
REMARK  124  A    between atoms: _343  and  _345
REMARK  125  A    between atoms: _345  and  _346
REMARK  126  A    between atoms: _345  and  _348
REMARK  127  A    between atoms: _348  and  _349
REMARK  128  A    between atoms: _352  and  _354
REMARK  129  A    between atoms: _354  and  _355
REMARK  130  A    between atoms: _357  and  _359
REMARK  131  A    between atoms: _359  and  _360
REMARK  132  A    between atoms: _359  and  _362
REMARK  133  A    between atoms: _362  and  _363
REMARK  134  A    between atoms: _366  and  _368
REMARK  135  A    between atoms: _368  and  _369
REMARK  136  A    between atoms: _368  and  _371
REMARK  137  A    between atoms: _371  and  _372
REMARK  138  A    between atoms: _375  and  _377
REMARK  139  A    between atoms: _377  and  _378
REMARK  140  A    between atoms: _377  and  _380
REMARK  141  A    between atoms: _380  and  _381
REMARK  142  A    between atoms: _381  and  _382
REMARK  143  A    between atoms: _382  and  _383
REMARK  144  A    between atoms: _392  and  _394
REMARK  145  A    between atoms: _394  and  _395
REMARK  146  A    between atoms: _394  and  _397
REMARK  147  A    between atoms: _397  and  _398
REMARK  148  A    between atoms: _401  and  _403
REMARK  149  A    between atoms: _403  and  _404
REMARK  150  A    between atoms: _403  and  _406
REMARK  151  A    between atoms: _406  and  _407
REMARK  152  A    between atoms: _410  and  _412
REMARK  153  A    between atoms: _412  and  _413
REMARK  154  A    between atoms: _416  and  _418
REMARK  155  A    between atoms: _418  and  _419
REMARK  156  A    between atoms: _418  and  _421
REMARK  157  A    between atoms: _421  and  _422
REMARK  158  A    between atoms: _424  and  _426
REMARK  159  A    between atoms: _426  and  _427
REMARK  160  A    between atoms: _426  and  _429
REMARK  161  A    between atoms: _429  and  _430
REMARK  162  A    between atoms: _430  and  _431
REMARK  163  A    between atoms: _431  and  _432
REMARK  164  A    between atoms: _432  and  _433
REMARK  165  A    between atoms: _437  and  _439
REMARK  166  A    between atoms: _439  and  _440
REMARK  167  A    between atoms: _439  and  _442
REMARK  168  A    between atoms: _442  and  _443
REMARK  169  A    between atoms: _448  and  _450
REMARK  170  A    between atoms: _450  and  _451
REMARK  171  A    between atoms: _450  and  _453
REMARK  172  A    between atoms: _453  and  _454
REMARK  173  A    between atoms: _454  and  _455
REMARK  174  A    between atoms: _457  and  _459
REMARK  175  A    between atoms: _459  and  _460
REMARK  176  A    between atoms: _459  and  _462
REMARK  177  A    between atoms: _462  and  _463
REMARK  178  A    between atoms: _463  and  _464
REMARK  179  A    between atoms: _467  and  _469
REMARK  180  A    between atoms: _469  and  _470
REMARK  181  A    between atoms: _469  and  _472
REMARK  182  A    between atoms: _475  and  _477
REMARK  183  A    between atoms: _477  and  _478
REMARK  184  A    between atoms: _477  and  _480
REMARK  185  A    between atoms: _480  and  _481
REMARK  186  A    between atoms: _484  and  _486
REMARK  187  A    between atoms: _486  and  _487
REMARK  188  A    between atoms: _486  and  _489
REMARK  189  A    between atoms: _489  and  _490
REMARK  190  A    between atoms: _493  and  _495
REMARK  191  A    between atoms: _495  and  _496
REMARK  192  A    between atoms: _495  and  _498
REMARK  193  A    between atoms: _498  and  _499
REMARK  194  A    between atoms: _502  and  _504
REMARK  195  A    between atoms: _504  and  _505
REMARK  196  A    between atoms: _507  and  _509
REMARK  197  A    between atoms: _509  and  _510
REMARK  198  A    between atoms: _512  and  _514
REMARK  199  A    between atoms: _514  and  _515
REMARK  200  A    between atoms: _514  and  _517
REMARK  201  A    between atoms: _517  and  _518
REMARK  202  A    between atoms: _518  and  _519
REMARK  203  A    between atoms: _522  and  _524
REMARK  204  A    between atoms: _524  and  _525
REMARK  205  A    between atoms: _524  and  _527
REMARK  206  A    between atoms: _527  and  _528
REMARK  207  A    between atoms: _531  and  _533
REMARK  208  A    between atoms: _533  and  _534
REMARK  209  A    between atoms: _533  and  _536
REMARK  210  A    between atoms: _536  and  _537
REMARK  211  A    between atoms: _543  and  _545
REMARK  212  A    between atoms: _545  and  _546
REMARK  213  A    between atoms: _549  and  _551
REMARK  214  A    between atoms: _551  and  _552
REMARK  215  A    between atoms: _551  and  _554
REMARK  216  A    between atoms: _554  and  _555
REMARK  217  A    between atoms: _560  and  _562
REMARK  218  A    between atoms: _562  and  _563
REMARK  219  A    between atoms: _562  and  _565
REMARK  220  A    between atoms: _565  and  _566
REMARK  221  A    between atoms: _571  and  _573
REMARK  222  A    between atoms: _573  and  _574
REMARK  223  A    between atoms: _573  and  _576
REMARK  224  A    between atoms: _576  and  _577
REMARK  225  A    between atoms: _580  and  _582
REMARK  226  A    between atoms: _582  and  _583
REMARK  227  A    between atoms: _582  and  _585
REMARK  228  A    between atoms: _585  and  _586
REMARK  229  A    between atoms: _591  and  _593
REMARK  230  A    between atoms: _593  and  _594
REMARK  231  A    between atoms: _593  and  _596
REMARK  232  A    between atoms: _596  and  _597
REMARK  233  A    between atoms: _597  and  _598
REMARK  234  A    between atoms: _598  and  _599
REMARK  235  A    between atoms: _608  and  _610
REMARK  236  A    between atoms: _610  and  _611
REMARK  237  A    between atoms: _613  and  _615
REMARK  238  A    between atoms: _615  and  _616
REMARK  239  A    between atoms: _615  and  _618
REMARK  240  A    between atoms: _618  and  _619
REMARK  241  A    between atoms: _624  and  _626
REMARK  242  A    between atoms: _626  and  _627
REMARK  243  A    between atoms: _629  and  _631
REMARK  244  A    between atoms: _631  and  _632
REMARK  245  A    between atoms: _635  and  _637
REMARK  246  A    between atoms: _637  and  _638
REMARK  247  A    between atoms: _640  and  _642
REMARK  248  A    between atoms: _642  and  _643
REMARK  249  A    between atoms: _645  and  _647
REMARK  250  A    between atoms: _647  and  _648
REMARK  251  A    between atoms: _651  and  _653
REMARK  252  A    between atoms: _653  and  _654
REMARK  253  A    between atoms: _653  and  _656
REMARK  254  A    between atoms: _656  and  _657
REMARK  255  A    between atoms: _657  and  _658
REMARK  256  A    between atoms: _658  and  _659
REMARK  257  A    between atoms: _668  and  _670
REMARK  258  A    between atoms: _670  and  _671
REMARK  259  A    between atoms: _670  and  _673
REMARK  260  A    between atoms: _673  and  _674
REMARK  261  A    between atoms: _677  and  _679
REMARK  262  A    between atoms: _679  and  _680
REMARK  263  A    between atoms: _679  and  _682
REMARK  264  A    between atoms: _682  and  _683
REMARK                            x       y       z     vdW  Elec       q    Type
REMARK                         _______ _______ _______ _____ _____    ______ ____
ROOT
ATOM      1  O   HOH     1      15.005 -29.075 -30.570  0.00  0.00    +0.000 OA
ENDROOT
TORSDOF 0
REMARK  Name = ../refined-set-2016/3old/3old_pocket.pdb
REMARK  264 active torsions:
REMARK  status: ('A' for Active; 'I' for Inactive)
REMARK    1  A    between atoms: _1  and  _3
REMARK    2  A    between atoms: _3  and  _4
REMARK    3  A    between atoms: _3  and  _6
REMARK    4  A    between atoms: _6  and  _7
REMARK    5  A    between atoms: _12  and  _14
REMARK    6  A    between atoms: _14  and  _15
REMARK    7  A    between atoms: _14  and  _17
REMARK    8  A    between atoms: _17  and  _18
REMARK    9  A    between atoms: _24  and  _26
REMARK   10  A    between atoms: _26  and  _27
REMARK   11  A    between atoms: _26  and  _29
REMARK   12  A    between atoms: _29  and  _30
REMARK   13  A    between atoms: _30  and  _31
REMARK   14  A    between atoms: _37  and  _38
REMARK   15  A    between atoms: _43  and  _45
REMARK   16  A    between atoms: _45  and  _46
REMARK   17  A    between atoms: _45  and  _48
REMARK   18  A    between atoms: _48  and  _49
REMARK   19  A    between atoms: _54  and  _56
REMARK   20  A    between atoms: _56  and  _57
REMARK   21  A    between atoms: _56  and  _59
REMARK   22  A    between atoms: _62  and  _64
REMARK   23  A    between atoms: _64  and  _65
REMARK   24  A    between atoms: _64  and  _67
REMARK   25  A    between atoms: _67  and  _68
REMARK   26  A    between atoms: _72  and  _73
REMARK   27  A    between atoms: _79  and  _80
REMARK   28  A    between atoms: _85  and  _87
REMARK   29  A    between atoms: _87  and  _88
REMARK   30  A    between atoms: _87  and  _90
REMARK   31  A    between atoms: _90  and  _91
REMARK   32  A    between atoms: _101  and  _103
REMARK   33  A    between atoms: _103  and  _104
REMARK   34  A    between atoms: _103  and  _106
REMARK   35  A    between atoms: _106  and  _107
REMARK   36  A    between atoms: _117  and  _119
REMARK   37  A    between atoms: _119  and  _120
REMARK   38  A    between atoms: _119  and  _122
REMARK   39  A    between atoms: _122  and  _123
REMARK   40  A    between atoms: _123  and  _124
REMARK   41  A    between atoms: _127  and  _129
REMARK   42  A    between atoms: _129  and  _130
REMARK   43  A    between atoms: _129  and  _132
REMARK   44  A    between atoms: _132  and  _133
REMARK   45  A    between atoms: _133  and  _134
REMARK   46  A    between atoms: _134  and  _135
REMARK   47  A    between atoms: _144  and  _146
REMARK   48  A    between atoms: _146  and  _147
REMARK   49  A    between atoms: _146  and  _149
REMARK   50  A    between atoms: _149  and  _150
REMARK   51  A    between atoms: _155  and  _156
REMARK   52  A    between atoms: _158  and  _160
REMARK   53  A    between atoms: _160  and  _161
REMARK   54  A    between atoms: _160  and  _163
REMARK   55  A    between atoms: _163  and  _164
REMARK   56  A    between atoms: _164  and  _165
REMARK   57  A    between atoms: _171  and  _172
REMARK   58  A    between atoms: _177  and  _179
REMARK   59  A    between atoms: _179  and  _180
REMARK   60  A    between atoms: _179  and  _182
REMARK   61  A    between atoms: _182  and  _183
REMARK   62  A    between atoms: _186  and  _188
REMARK   63  A    between atoms: _188  and  _189
REMARK   64  A    between atoms: _192  and  _194
REMARK   65  A    between atoms: _194  and  _195
REMARK   66  A    between atoms: _194  and  _197
REMARK   67  A    between atoms: _200  and  _202
REMARK   68  A    between atoms: _202  and  _203
REMARK   69  A    between atoms: _202  and  _205
REMARK   70  A    between atoms: _205  and  _206
REMARK   71  A    between atoms: _209  and  _211
REMARK   72  A    between atoms: _211  and  _212
REMARK   73  A    between atoms: _211  and  _214
REMARK   74  A    between atoms: _214  and  _215
REMARK   75  A    between atoms: _220  and  _222
REMARK   76  A    between atoms: _222  and  _223
REMARK   77  A    between atoms: _222  and  _225
REMARK   78  A    between atoms: _225  and  _226
REMARK   79  A    between atoms: _231  and  _233
REMARK   80  A    between atoms: _233  and  _234
REMARK   81  A    between atoms: _233  and  _236
REMARK   82  A    between atoms: _236  and  _237
REMARK   83  A    between atoms: _237  and  _238
REMARK   84  A    between atoms: _240  and  _242
REMARK   85  A    between atoms: _242  and  _243
REMARK   86  A    between atoms: _242  and  _245
REMARK   87  A    between atoms: _247  and  _249
REMARK   88  A    between atoms: _249  and  _250
REMARK   89  A    between atoms: _252  and  _254
REMARK   90  A    between atoms: _254  and  _255
REMARK   91  A    between atoms: _254  and  _257
REMARK   92  A    between atoms: _257  and  _258
REMARK   93  A    between atoms: _263  and  _265
REMARK   94  A    between atoms: _265  and  _266
REMARK   95  A    between atoms: _269  and  _271
REMARK   96  A    between atoms: _271  and  _272
REMARK   97  A    between atoms: _271  and  _274
REMARK   98  A    between atoms: _277  and  _279
REMARK   99  A    between atoms: _279  and  _280
REMARK  100  A    between atoms: _279  and  _282
REMARK  101  A    between atoms: _282  and  _283
REMARK  102  A    between atoms: _286  and  _288
REMARK  103  A    between atoms: _288  and  _289
REMARK  104  A    between atoms: _288  and  _291
REMARK  105  A    between atoms: _291  and  _292
REMARK  106  A    between atoms: _295  and  _297
REMARK  107  A    between atoms: _297  and  _298
REMARK  108  A    between atoms: _297  and  _300
REMARK  109  A    between atoms: _300  and  _301
REMARK  110  A    between atoms: _306  and  _307
REMARK  111  A    between atoms: _309  and  _311
REMARK  112  A    between atoms: _311  and  _312
REMARK  113  A    between atoms: _311  and  _314
REMARK  114  A    between atoms: _317  and  _319
REMARK  115  A    between atoms: _319  and  _320
REMARK  116  A    between atoms: _319  and  _322
REMARK  117  A    between atoms: _322  and  _323
REMARK  118  A    between atoms: _323  and  _324
REMARK  119  A    between atoms: _324  and  _325
REMARK  120  A    between atoms: _334  and  _336
REMARK  121  A    between atoms: _336  and  _337
REMARK  122  A    between atoms: _336  and  _339
REMARK  123  A    between atoms: _339  and  _340
REMARK  124  A    between atoms: _343  and  _345
REMARK  125  A    between atoms: _345  and  _346
REMARK  126  A    between atoms: _345  and  _348
REMARK  127  A    between atoms: _348  and  _349
REMARK  128  A    between atoms: _352  and  _354
REMARK  129  A    between atoms: _354  and  _355
REMARK  130  A    between atoms: _357  and  _359
REMARK  131  A    between atoms: _359  and  _360
REMARK  132  A    between atoms: _359  and  _362
REMARK  133  A    between atoms: _362  and  _363
REMARK  134  A    between atoms: _366  and  _368
REMARK  135  A    between atoms: _368  and  _369
REMARK  136  A    between atoms: _368  and  _371
REMARK  137  A    between atoms: _371  and  _372
REMARK  138  A    between atoms: _375  and  _377
REMARK  139  A    between atoms: _377  and  _378
REMARK  140  A    between atoms: _377  and  _380
REMARK  141  A    between atoms: _380  and  _381
REMARK  142  A    between atoms: _381  and  _382
REMARK  143  A    between atoms: _382  and  _383
REMARK  144  A    between atoms: _392  and  _394
REMARK  145  A    between atoms: _394  and  _395
REMARK  146  A    between atoms: _394  and  _397
REMARK  147  A    between atoms: _397  and  _398
REMARK  148  A    between atoms: _401  and  _403
REMARK  149  A    between atoms: _403  and  _404
REMARK  150  A    between atoms: _403  and  _406
REMARK  151  A    between atoms: _406  and  _407
REMARK  152  A    between atoms: _410  and  _412
REMARK  153  A    between atoms: _412  and  _413
REMARK  154  A    between atoms: _416  and  _418
REMARK  155  A    between atoms: _418  and  _419
REMARK  156  A    between atoms: _418  and  _421
REMARK  157  A    between atoms: _421  and  _422
REMARK  158  A    between atoms: _424  and  _426
REMARK  159  A    between atoms: _426  and  _427
REMARK  160  A    between atoms: _426  and  _429
REMARK  161  A    between atoms: _429  and  _430
REMARK  162  A    between atoms: _430  and  _431
REMARK  163  A    between atoms: _431  and  _432
REMARK  164  A    between atoms: _432  and  _433
REMARK  165  A    between atoms: _437  and  _439
REMARK  166  A    between atoms: _439  and  _440
REMARK  167  A    between atoms: _439  and  _442
REMARK  168  A    between atoms: _442  and  _443
REMARK  169  A    between atoms: _448  and  _450
REMARK  170  A    between atoms: _450  and  _451
REMARK  171  A    between atoms: _450  and  _453
REMARK  172  A    between atoms: _453  and  _454
REMARK  173  A    between atoms: _454  and  _455
REMARK  174  A    between atoms: _457  and  _459
REMARK  175  A    between atoms: _459  and  _460
REMARK  176  A    between atoms: _459  and  _462
REMARK  177  A    between atoms: _462  and  _463
REMARK  178  A    between atoms: _463  and  _464
REMARK  179  A    between atoms: _467  and  _469
REMARK  180  A    between atoms: _469  and  _470
REMARK  181  A    between atoms: _469  and  _472
REMARK  182  A    between atoms: _475  and  _477
REMARK  183  A    between atoms: _477  and  _478
REMARK  184  A    between atoms: _477  and  _480
REMARK  185  A    between atoms: _480  and  _481
REMARK  186  A    between atoms: _484  and  _486
REMARK  187  A    between atoms: _486  and  _487
REMARK  188  A    between atoms: _486  and  _489
REMARK  189  A    between atoms: _489  and  _490
REMARK  190  A    between atoms: _493  and  _495
REMARK  191  A    between atoms: _495  and  _496
REMARK  192  A    between atoms: _495  and  _498
REMARK  193  A    between atoms: _498  and  _499
REMARK  194  A    between atoms: _502  and  _504
REMARK  195  A    between atoms: _504  and  _505
REMARK  196  A    between atoms: _507  and  _509
REMARK  197  A    between atoms: _509  and  _510
REMARK  198  A    between atoms: _512  and  _514
REMARK  199  A    between atoms: _514  and  _515
REMARK  200  A    between atoms: _514  and  _517
REMARK  201  A    between atoms: _517  and  _518
REMARK  202  A    between atoms: _518  and  _519
REMARK  203  A    between atoms: _522  and  _524
REMARK  204  A    between atoms: _524  and  _525
REMARK  205  A    between atoms: _524  and  _527
REMARK  206  A    between atoms: _527  and  _528
REMARK  207  A    between atoms: _531  and  _533
REMARK  208  A    between atoms: _533  and  _534
REMARK  209  A    between atoms: _533  and  _536
REMARK  210  A    between atoms: _536  and  _537
REMARK  211  A    between atoms: _543  and  _545
REMARK  212  A    between atoms: _545  and  _546
REMARK  213  A    between atoms: _549  and  _551
REMARK  214  A    between atoms: _551  and  _552
REMARK  215  A    between atoms: _551  and  _554
REMARK  216  A    between atoms: _554  and  _555
REMARK  217  A    between atoms: _560  and  _562
REMARK  218  A    between atoms: _562  and  _563
REMARK  219  A    between atoms: _562  and  _565
REMARK  220  A    between atoms: _565  and  _566
REMARK  221  A    between atoms: _571  and  _573
REMARK  222  A    between atoms: _573  and  _574
REMARK  223  A    between atoms: _573  and  _576
REMARK  224  A    between atoms: _576  and  _577
REMARK  225  A    between atoms: _580  and  _582
REMARK  226  A    between atoms: _582  and  _583
REMARK  227  A    between atoms: _582  and  _585
REMARK  228  A    between atoms: _585  and  _586
REMARK  229  A    between atoms: _591  and  _593
REMARK  230  A    between atoms: _593  and  _594
REMARK  231  A    between atoms: _593  and  _596
REMARK  232  A    between atoms: _596  and  _597
REMARK  233  A    between atoms: _597  and  _598
REMARK  234  A    between atoms: _598  and  _599
REMARK  235  A    between atoms: _608  and  _610
REMARK  236  A    between atoms: _610  and  _611
REMARK  237  A    between atoms: _613  and  _615
REMARK  238  A    between atoms: _615  and  _616
REMARK  239  A    between atoms: _615  and  _618
REMARK  240  A    between atoms: _618  and  _619
REMARK  241  A    between atoms: _624  and  _626
REMARK  242  A    between atoms: _626  and  _627
REMARK  243  A    between atoms: _629  and  _631
REMARK  244  A    between atoms: _631  and  _632
REMARK  245  A    between atoms: _635  and  _637
REMARK  246  A    between atoms: _637  and  _638
REMARK  247  A    between atoms: _640  and  _642
REMARK  248  A    between atoms: _642  and  _643
REMARK  249  A    between atoms: _645  and  _647
REMARK  250  A    between atoms: _647  and  _648
REMARK  251  A    between atoms: _651  and  _653
REMARK  252  A    between atoms: _653  and  _654
REMARK  253  A    between atoms: _653  and  _656
REMARK  254  A    between atoms: _656  and  _657
REMARK  255  A    between atoms: _657  and  _658
REMARK  256  A    between atoms: _658  and  _659
REMARK  257  A    between atoms: _668  and  _670
REMARK  258  A    between atoms: _670  and  _671
REMARK  259  A    between atoms: _670  and  _673
REMARK  260  A    between atoms: _673  and  _674
REMARK  261  A    between atoms: _677  and  _679
REMARK  262  A    between atoms: _679  and  _680
REMARK  263  A    between atoms: _679  and  _682
REMARK  264  A    between atoms: _682  and  _683
REMARK                            x       y       z     vdW  Elec       q    Type
REMARK                         _______ _______ _______ _____ _____    ______ ____
ROOT
ATOM      1  O   HOH     1       5.864 -19.381 -18.482  0.00  0.00    +0.000 OA
ENDROOT
TORSDOF 0
REMARK  Name = ../refined-set-2016/3old/3old_pocket.pdb
REMARK  264 active torsions:
REMARK  status: ('A' for Active; 'I' for Inactive)
REMARK    1  A    between atoms: _1  and  _3
REMARK    2  A    between atoms: _3  and  _4
REMARK    3  A    between atoms: _3  and  _6
REMARK    4  A    between atoms: _6  and  _7
REMARK    5  A    between atoms: _12  and  _14
REMARK    6  A    between atoms: _14  and  _15
REMARK    7  A    between atoms: _14  and  _17
REMARK    8  A    between atoms: _17  and  _18
REMARK    9  A    between atoms: _24  and  _26
REMARK   10  A    between atoms: _26  and  _27
REMARK   11  A    between atoms: _26  and  _29
REMARK   12  A    between atoms: _29  and  _30
REMARK   13  A    between atoms: _30  and  _31
REMARK   14  A    between atoms: _37  and  _38
REMARK   15  A    between atoms: _43  and  _45
REMARK   16  A    between atoms: _45  and  _46
REMARK   17  A    between atoms: _45  and  _48
REMARK   18  A    between atoms: _48  and  _49
REMARK   19  A    between atoms: _54  and  _56
REMARK   20  A    between atoms: _56  and  _57
REMARK   21  A    between atoms: _56  and  _59
REMARK   22  A    between atoms: _62  and  _64
REMARK   23  A    between atoms: _64  and  _65
REMARK   24  A    between atoms: _64  and  _67
REMARK   25  A    between atoms: _67  and  _68
REMARK   26  A    between atoms: _72  and  _73
REMARK   27  A    between atoms: _79  and  _80
REMARK   28  A    between atoms: _85  and  _87
REMARK   29  A    between atoms: _87  and  _88
REMARK   30  A    between atoms: _87  and  _90
REMARK   31  A    between atoms: _90  and  _91
REMARK   32  A    between atoms: _101  and  _103
REMARK   33  A    between atoms: _103  and  _104
REMARK   34  A    between atoms: _103  and  _106
REMARK   35  A    between atoms: _106  and  _107
REMARK   36  A    between atoms: _117  and  _119
REMARK   37  A    between atoms: _119  and  _120
REMARK   38  A    between atoms: _119  and  _122
REMARK   39  A    between atoms: _122  and  _123
REMARK   40  A    between atoms: _123  and  _124
REMARK   41  A    between atoms: _127  and  _129
REMARK   42  A    between atoms: _129  and  _130
REMARK   43  A    between atoms: _129  and  _132
REMARK   44  A    between atoms: _132  and  _133
REMARK   45  A    between atoms: _133  and  _134
REMARK   46  A    between atoms: _134  and  _135
REMARK   47  A    between atoms: _144  and  _146
REMARK   48  A    between atoms: _146  and  _147
REMARK   49  A    between atoms: _146  and  _149
REMARK   50  A    between atoms: _149  and  _150
REMARK   51  A    between atoms: _155  and  _156
REMARK   52  A    between atoms: _158  and  _160
REMARK   53  A    between atoms: _160  and  _161
REMARK   54  A    between atoms: _160  and  _163
REMARK   55  A    between atoms: _163  and  _164
REMARK   56  A    between atoms: _164  and  _165
REMARK   57  A    between atoms: _171  and  _172
REMARK   58  A    between atoms: _177  and  _179
REMARK   59  A    between atoms: _179  and  _180
REMARK   60  A    between atoms: _179  and  _182
REMARK   61  A    between atoms: _182  and  _183
REMARK   62  A    between atoms: _186  and  _188
REMARK   63  A    between atoms: _188  and  _189
REMARK   64  A    between atoms: _192  and  _194
REMARK   65  A    between atoms: _194  and  _195
REMARK   66  A    between atoms: _194  and  _197
REMARK   67  A    between atoms: _200  and  _202
REMARK   68  A    between atoms: _202  and  _203
REMARK   69  A    between atoms: _202  and  _205
REMARK   70  A    between atoms: _205  and  _206
REMARK   71  A    between atoms: _209  and  _211
REMARK   72  A    between atoms: _211  and  _212
REMARK   73  A    between atoms: _211  and  _214
REMARK   74  A    between atoms: _214  and  _215
REMARK   75  A    between atoms: _220  and  _222
REMARK   76  A    between atoms: _222  and  _223
REMARK   77  A    between atoms: _222  and  _225
REMARK   78  A    between atoms: _225  and  _226
REMARK   79  A    between atoms: _231  and  _233
REMARK   80  A    between atoms: _233  and  _234
REMARK   81  A    between atoms: _233  and  _236
REMARK   82  A    between atoms: _236  and  _237
REMARK   83  A    between atoms: _237  and  _238
REMARK   84  A    between atoms: _240  and  _242
REMARK   85  A    between atoms: _242  and  _243
REMARK   86  A    between atoms: _242  and  _245
REMARK   87  A    between atoms: _247  and  _249
REMARK   88  A    between atoms: _249  and  _250
REMARK   89  A    between atoms: _252  and  _254
REMARK   90  A    between atoms: _254  and  _255
REMARK   91  A    between atoms: _254  and  _257
REMARK   92  A    between atoms: _257  and  _258
REMARK   93  A    between atoms: _263  and  _265
REMARK   94  A    between atoms: _265  and  _266
REMARK   95  A    between atoms: _269  and  _271
REMARK   96  A    between atoms: _271  and  _272
REMARK   97  A    between atoms: _271  and  _274
REMARK   98  A    between atoms: _277  and  _279
REMARK   99  A    between atoms: _279  and  _280
REMARK  100  A    between atoms: _279  and  _282
REMARK  101  A    between atoms: _282  and  _283
REMARK  102  A    between atoms: _286  and  _288
REMARK  103  A    between atoms: _288  and  _289
REMARK  104  A    between atoms: _288  and  _291
REMARK  105  A    between atoms: _291  and  _292
REMARK  106  A    between atoms: _295  and  _297
REMARK  107  A    between atoms: _297  and  _298
REMARK  108  A    between atoms: _297  and  _300
REMARK  109  A    between atoms: _300  and  _301
REMARK  110  A    between atoms: _306  and  _307
REMARK  111  A    between atoms: _309  and  _311
REMARK  112  A    between atoms: _311  and  _312
REMARK  113  A    between atoms: _311  and  _314
REMARK  114  A    between atoms: _317  and  _319
REMARK  115  A    between atoms: _319  and  _320
REMARK  116  A    between atoms: _319  and  _322
REMARK  117  A    between atoms: _322  and  _323
REMARK  118  A    between atoms: _323  and  _324
REMARK  119  A    between atoms: _324  and  _325
REMARK  120  A    between atoms: _334  and  _336
REMARK  121  A    between atoms: _336  and  _337
REMARK  122  A    between atoms: _336  and  _339
REMARK  123  A    between atoms: _339  and  _340
REMARK  124  A    between atoms: _343  and  _345
REMARK  125  A    between atoms: _345  and  _346
REMARK  126  A    between atoms: _345  and  _348
REMARK  127  A    between atoms: _348  and  _349
REMARK  128  A    between atoms: _352  and  _354
REMARK  129  A    between atoms: _354  and  _355
REMARK  130  A    between atoms: _357  and  _359
REMARK  131  A    between atoms: _359  and  _360
REMARK  132  A    between atoms: _359  and  _362
REMARK  133  A    between atoms: _362  and  _363
REMARK  134  A    between atoms: _366  and  _368
REMARK  135  A    between atoms: _368  and  _369
REMARK  136  A    between atoms: _368  and  _371
REMARK  137  A    between atoms: _371  and  _372
REMARK  138  A    between atoms: _375  and  _377
REMARK  139  A    between atoms: _377  and  _378
REMARK  140  A    between atoms: _377  and  _380
REMARK  141  A    between atoms: _380  and  _381
REMARK  142  A    between atoms: _381  and  _382
REMARK  143  A    between atoms: _382  and  _383
REMARK  144  A    between atoms: _392  and  _394
REMARK  145  A    between atoms: _394  and  _395
REMARK  146  A    between atoms: _394  and  _397
REMARK  147  A    between atoms: _397  and  _398
REMARK  148  A    between atoms: _401  and  _403
REMARK  149  A    between atoms: _403  and  _404
REMARK  150  A    between atoms: _403  and  _406
REMARK  151  A    between atoms: _406  and  _407
REMARK  152  A    between atoms: _410  and  _412
REMARK  153  A    between atoms: _412  and  _413
REMARK  154  A    between atoms: _416  and  _418
REMARK  155  A    between atoms: _418  and  _419
REMARK  156  A    between atoms: _418  and  _421
REMARK  157  A    between atoms: _421  and  _422
REMARK  158  A    between atoms: _424  and  _426
REMARK  159  A    between atoms: _426  and  _427
REMARK  160  A    between atoms: _426  and  _429
REMARK  161  A    between atoms: _429  and  _430
REMARK  162  A    between atoms: _430  and  _431
REMARK  163  A    between atoms: _431  and  _432
REMARK  164  A    between atoms: _432  and  _433
REMARK  165  A    between atoms: _437  and  _439
REMARK  166  A    between atoms: _439  and  _440
REMARK  167  A    between atoms: _439  and  _442
REMARK  168  A    between atoms: _442  and  _443
REMARK  169  A    between atoms: _448  and  _450
REMARK  170  A    between atoms: _450  and  _451
REMARK  171  A    between atoms: _450  and  _453
REMARK  172  A    between atoms: _453  and  _454
REMARK  173  A    between atoms: _454  and  _455
REMARK  174  A    between atoms: _457  and  _459
REMARK  175  A    between atoms: _459  and  _460
REMARK  176  A    between atoms: _459  and  _462
REMARK  177  A    between atoms: _462  and  _463
REMARK  178  A    between atoms: _463  and  _464
REMARK  179  A    between atoms: _467  and  _469
REMARK  180  A    between atoms: _469  and  _470
REMARK  181  A    between atoms: _469  and  _472
REMARK  182  A    between atoms: _475  and  _477
REMARK  183  A    between atoms: _477  and  _478
REMARK  184  A    between atoms: _477  and  _480
REMARK  185  A    between atoms: _480  and  _481
REMARK  186  A    between atoms: _484  and  _486
REMARK  187  A    between atoms: _486  and  _487
REMARK  188  A    between atoms: _486  and  _489
REMARK  189  A    between atoms: _489  and  _490
REMARK  190  A    between atoms: _493  and  _495
REMARK  191  A    between atoms: _495  and  _496
REMARK  192  A    between atoms: _495  and  _498
REMARK  193  A    between atoms: _498  and  _499
REMARK  194  A    between atoms: _502  and  _504
REMARK  195  A    between atoms: _504  and  _505
REMARK  196  A    between atoms: _507  and  _509
REMARK  197  A    between atoms: _509  and  _510
REMARK  198  A    between atoms: _512  and  _514
REMARK  199  A    between atoms: _514  and  _515
REMARK  200  A    between atoms: _514  and  _517
REMARK  201  A    between atoms: _517  and  _518
REMARK  202  A    between atoms: _518  and  _519
REMARK  203  A    between atoms: _522  and  _524
REMARK  204  A    between atoms: _524  and  _525
REMARK  205  A    between atoms: _524  and  _527
REMARK  206  A    between atoms: _527  and  _528
REMARK  207  A    between atoms: _531  and  _533
REMARK  208  A    between atoms: _533  and  _534
REMARK  209  A    between atoms: _533  and  _536
REMARK  210  A    between atoms: _536  and  _537
REMARK  211  A    between atoms: _543  and  _545
REMARK  212  A    between atoms: _545  and  _546
REMARK  213  A    between atoms: _549  and  _551
REMARK  214  A    between atoms: _551  and  _552
REMARK  215  A    between atoms: _551  and  _554
REMARK  216  A    between atoms: _554  and  _555
REMARK  217  A    between atoms: _560  and  _562
REMARK  218  A    between atoms: _562  and  _563
REMARK  219  A    between atoms: _562  and  _565
REMARK  220  A    between atoms: _565  and  _566
REMARK  221  A    between atoms: _571  and  _573
REMARK  222  A    between atoms: _573  and  _574
REMARK  223  A    between atoms: _573  and  _576
REMARK  224  A    between atoms: _576  and  _577
REMARK  225  A    between atoms: _580  and  _582
REMARK  226  A    between atoms: _582  and  _583
REMARK  227  A    between atoms: _582  and  _585
REMARK  228  A    between atoms: _585  and  _586
REMARK  229  A    between atoms: _591  and  _593
REMARK  230  A    between atoms: _593  and  _594
REMARK  231  A    between atoms: _593  and  _596
REMARK  232  A    between atoms: _596  and  _597
REMARK  233  A    between atoms: _597  and  _598
REMARK  234  A    between atoms: _598  and  _599
REMARK  235  A    between atoms: _608  and  _610
REMARK  236  A    between atoms: _610  and  _611
REMARK  237  A    between atoms: _613  and  _615
REMARK  238  A    between atoms: _615  and  _616
REMARK  239  A    between atoms: _615  and  _618
REMARK  240  A    between atoms: _618  and  _619
REMARK  241  A    between atoms: _624  and  _626
REMARK  242  A    between atoms: _626  and  _627
REMARK  243  A    between atoms: _629  and  _631
REMARK  244  A    between atoms: _631  and  _632
REMARK  245  A    between atoms: _635  and  _637
REMARK  246  A    between atoms: _637  and  _638
REMARK  247  A    between atoms: _640  and  _642
REMARK  248  A    between atoms: _642  and  _643
REMARK  249  A    between atoms: _645  and  _647
REMARK  250  A    between atoms: _647  and  _648
REMARK  251  A    between atoms: _651  and  _653
REMARK  252  A    between atoms: _653  and  _654
REMARK  253  A    between atoms: _653  and  _656
REMARK  254  A    between atoms: _656  and  _657
REMARK  255  A    between atoms: _657  and  _658
REMARK  256  A    between atoms: _658  and  _659
REMARK  257  A    between atoms: _668  and  _670
REMARK  258  A    between atoms: _670  and  _671
REMARK  259  A    between atoms: _670  and  _673
REMARK  260  A    between atoms: _673  and  _674
REMARK  261  A    between atoms: _677  and  _679
REMARK  262  A    between atoms: _679  and  _680
REMARK  263  A    between atoms: _679  and  _682
REMARK  264  A    between atoms: _682  and  _683
REMARK                            x       y       z     vdW  Elec       q    Type
REMARK                         _______ _______ _______ _____ _____    ______ ____
ROOT
ATOM      1  O   HOH     1      -3.041 -18.907 -22.132  0.00  0.00    +0.000 OA
ENDROOT
TORSDOF 0
REMARK  Name = ../refined-set-2016/3old/3old_pocket.pdb
REMARK  264 active torsions:
REMARK  status: ('A' for Active; 'I' for Inactive)
REMARK    1  A    between atoms: _1  and  _3
REMARK    2  A    between atoms: _3  and  _4
REMARK    3  A    between atoms: _3  and  _6
REMARK    4  A    between atoms: _6  and  _7
REMARK    5  A    between atoms: _12  and  _14
REMARK    6  A    between atoms: _14  and  _15
REMARK    7  A    between atoms: _14  and  _17
REMARK    8  A    between atoms: _17  and  _18
REMARK    9  A    between atoms: _24  and  _26
REMARK   10  A    between atoms: _26  and  _27
REMARK   11  A    between atoms: _26  and  _29
REMARK   12  A    between atoms: _29  and  _30
REMARK   13  A    between atoms: _30  and  _31
REMARK   14  A    between atoms: _37  and  _38
REMARK   15  A    between atoms: _43  and  _45
REMARK   16  A    between atoms: _45  and  _46
REMARK   17  A    between atoms: _45  and  _48
REMARK   18  A    between atoms: _48  and  _49
REMARK   19  A    between atoms: _54  and  _56
REMARK   20  A    between atoms: _56  and  _57
REMARK   21  A    between atoms: _56  and  _59
REMARK   22  A    between atoms: _62  and  _64
REMARK   23  A    between atoms: _64  and  _65
REMARK   24  A    between atoms: _64  and  _67
REMARK   25  A    between atoms: _67  and  _68
REMARK   26  A    between atoms: _72  and  _73
REMARK   27  A    between atoms: _79  and  _80
REMARK   28  A    between atoms: _85  and  _87
REMARK   29  A    between atoms: _87  and  _88
REMARK   30  A    between atoms: _87  and  _90
REMARK   31  A    between atoms: _90  and  _91
REMARK   32  A    between atoms: _101  and  _103
REMARK   33  A    between atoms: _103  and  _104
REMARK   34  A    between atoms: _103  and  _106
REMARK   35  A    between atoms: _106  and  _107
REMARK   36  A    between atoms: _117  and  _119
REMARK   37  A    between atoms: _119  and  _120
REMARK   38  A    between atoms: _119  and  _122
REMARK   39  A    between atoms: _122  and  _123
REMARK   40  A    between atoms: _123  and  _124
REMARK   41  A    between atoms: _127  and  _129
REMARK   42  A    between atoms: _129  and  _130
REMARK   43  A    between atoms: _129  and  _132
REMARK   44  A    between atoms: _132  and  _133
REMARK   45  A    between atoms: _133  and  _134
REMARK   46  A    between atoms: _134  and  _135
REMARK   47  A    between atoms: _144  and  _146
REMARK   48  A    between atoms: _146  and  _147
REMARK   49  A    between atoms: _146  and  _149
REMARK   50  A    between atoms: _149  and  _150
REMARK   51  A    between atoms: _155  and  _156
REMARK   52  A    between atoms: _158  and  _160
REMARK   53  A    between atoms: _160  and  _161
REMARK   54  A    between atoms: _160  and  _163
REMARK   55  A    between atoms: _163  and  _164
REMARK   56  A    between atoms: _164  and  _165
REMARK   57  A    between atoms: _171  and  _172
REMARK   58  A    between atoms: _177  and  _179
REMARK   59  A    between atoms: _179  and  _180
REMARK   60  A    between atoms: _179  and  _182
REMARK   61  A    between atoms: _182  and  _183
REMARK   62  A    between atoms: _186  and  _188
REMARK   63  A    between atoms: _188  and  _189
REMARK   64  A    between atoms: _192  and  _194
REMARK   65  A    between atoms: _194  and  _195
REMARK   66  A    between atoms: _194  and  _197
REMARK   67  A    between atoms: _200  and  _202
REMARK   68  A    between atoms: _202  and  _203
REMARK   69  A    between atoms: _202  and  _205
REMARK   70  A    between atoms: _205  and  _206
REMARK   71  A    between atoms: _209  and  _211
REMARK   72  A    between atoms: _211  and  _212
REMARK   73  A    between atoms: _211  and  _214
REMARK   74  A    between atoms: _214  and  _215
REMARK   75  A    between atoms: _220  and  _222
REMARK   76  A    between atoms: _222  and  _223
REMARK   77  A    between atoms: _222  and  _225
REMARK   78  A    between atoms: _225  and  _226
REMARK   79  A    between atoms: _231  and  _233
REMARK   80  A    between atoms: _233  and  _234
REMARK   81  A    between atoms: _233  and  _236
REMARK   82  A    between atoms: _236  and  _237
REMARK   83  A    between atoms: _237  and  _238
REMARK   84  A    between atoms: _240  and  _242
REMARK   85  A    between atoms: _242  and  _243
REMARK   86  A    between atoms: _242  and  _245
REMARK   87  A    between atoms: _247  and  _249
REMARK   88  A    between atoms: _249  and  _250
REMARK   89  A    between atoms: _252  and  _254
REMARK   90  A    between atoms: _254  and  _255
REMARK   91  A    between atoms: _254  and  _257
REMARK   92  A    between atoms: _257  and  _258
REMARK   93  A    between atoms: _263  and  _265
REMARK   94  A    between atoms: _265  and  _266
REMARK   95  A    between atoms: _269  and  _271
REMARK   96  A    between atoms: _271  and  _272
REMARK   97  A    between atoms: _271  and  _274
REMARK   98  A    between atoms: _277  and  _279
REMARK   99  A    between atoms: _279  and  _280
REMARK  100  A    between atoms: _279  and  _282
REMARK  101  A    between atoms: _282  and  _283
REMARK  102  A    between atoms: _286  and  _288
REMARK  103  A    between atoms: _288  and  _289
REMARK  104  A    between atoms: _288  and  _291
REMARK  105  A    between atoms: _291  and  _292
REMARK  106  A    between atoms: _295  and  _297
REMARK  107  A    between atoms: _297  and  _298
REMARK  108  A    between atoms: _297  and  _300
REMARK  109  A    between atoms: _300  and  _301
REMARK  110  A    between atoms: _306  and  _307
REMARK  111  A    between atoms: _309  and  _311
REMARK  112  A    between atoms: _311  and  _312
REMARK  113  A    between atoms: _311  and  _314
REMARK  114  A    between atoms: _317  and  _319
REMARK  115  A    between atoms: _319  and  _320
REMARK  116  A    between atoms: _319  and  _322
REMARK  117  A    between atoms: _322  and  _323
REMARK  118  A    between atoms: _323  and  _324
REMARK  119  A    between atoms: _324  and  _325
REMARK  120  A    between atoms: _334  and  _336
REMARK  121  A    between atoms: _336  and  _337
REMARK  122  A    between atoms: _336  and  _339
REMARK  123  A    between atoms: _339  and  _340
REMARK  124  A    between atoms: _343  and  _345
REMARK  125  A    between atoms: _345  and  _346
REMARK  126  A    between atoms: _345  and  _348
REMARK  127  A    between atoms: _348  and  _349
REMARK  128  A    between atoms: _352  and  _354
REMARK  129  A    between atoms: _354  and  _355
REMARK  130  A    between atoms: _357  and  _359
REMARK  131  A    between atoms: _359  and  _360
REMARK  132  A    between atoms: _359  and  _362
REMARK  133  A    between atoms: _362  and  _363
REMARK  134  A    between atoms: _366  and  _368
REMARK  135  A    between atoms: _368  and  _369
REMARK  136  A    between atoms: _368  and  _371
REMARK  137  A    between atoms: _371  and  _372
REMARK  138  A    between atoms: _375  and  _377
REMARK  139  A    between atoms: _377  and  _378
REMARK  140  A    between atoms: _377  and  _380
REMARK  141  A    between atoms: _380  and  _381
REMARK  142  A    between atoms: _381  and  _382
REMARK  143  A    between atoms: _382  and  _383
REMARK  144  A    between atoms: _392  and  _394
REMARK  145  A    between atoms: _394  and  _395
REMARK  146  A    between atoms: _394  and  _397
REMARK  147  A    between atoms: _397  and  _398
REMARK  148  A    between atoms: _401  and  _403
REMARK  149  A    between atoms: _403  and  _404
REMARK  150  A    between atoms: _403  and  _406
REMARK  151  A    between atoms: _406  and  _407
REMARK  152  A    between atoms: _410  and  _412
REMARK  153  A    between atoms: _412  and  _413
REMARK  154  A    between atoms: _416  and  _418
REMARK  155  A    between atoms: _418  and  _419
REMARK  156  A    between atoms: _418  and  _421
REMARK  157  A    between atoms: _421  and  _422
REMARK  158  A    between atoms: _424  and  _426
REMARK  159  A    between atoms: _426  and  _427
REMARK  160  A    between atoms: _426  and  _429
REMARK  161  A    between atoms: _429  and  _430
REMARK  162  A    between atoms: _430  and  _431
REMARK  163  A    between atoms: _431  and  _432
REMARK  164  A    between atoms: _432  and  _433
REMARK  165  A    between atoms: _437  and  _439
REMARK  166  A    between atoms: _439  and  _440
REMARK  167  A    between atoms: _439  and  _442
REMARK  168  A    between atoms: _442  and  _443
REMARK  169  A    between atoms: _448  and  _450
REMARK  170  A    between atoms: _450  and  _451
REMARK  171  A    between atoms: _450  and  _453
REMARK  172  A    between atoms: _453  and  _454
REMARK  173  A    between atoms: _454  and  _455
REMARK  174  A    between atoms: _457  and  _459
REMARK  175  A    between atoms: _459  and  _460
REMARK  176  A    between atoms: _459  and  _462
REMARK  177  A    between atoms: _462  and  _463
REMARK  178  A    between atoms: _463  and  _464
REMARK  179  A    between atoms: _467  and  _469
REMARK  180  A    between atoms: _469  and  _470
REMARK  181  A    between atoms: _469  and  _472
REMARK  182  A    between atoms: _475  and  _477
REMARK  183  A    between atoms: _477  and  _478
REMARK  184  A    between atoms: _477  and  _480
REMARK  185  A    between atoms: _480  and  _481
REMARK  186  A    between atoms: _484  and  _486
REMARK  187  A    between atoms: _486  and  _487
REMARK  188  A    between atoms: _486  and  _489
REMARK  189  A    between atoms: _489  and  _490
REMARK  190  A    between atoms: _493  and  _495
REMARK  191  A    between atoms: _495  and  _496
REMARK  192  A    between atoms: _495  and  _498
REMARK  193  A    between atoms: _498  and  _499
REMARK  194  A    between atoms: _502  and  _504
REMARK  195  A    between atoms: _504  and  _505
REMARK  196  A    between atoms: _507  and  _509
REMARK  197  A    between atoms: _509  and  _510
REMARK  198  A    between atoms: _512  and  _514
REMARK  199  A    between atoms: _514  and  _515
REMARK  200  A    between atoms: _514  and  _517
REMARK  201  A    between atoms: _517  and  _518
REMARK  202  A    between atoms: _518  and  _519
REMARK  203  A    between atoms: _522  and  _524
REMARK  204  A    between atoms: _524  and  _525
REMARK  205  A    between atoms: _524  and  _527
REMARK  206  A    between atoms: _527  and  _528
REMARK  207  A    between atoms: _531  and  _533
REMARK  208  A    between atoms: _533  and  _534
REMARK  209  A    between atoms: _533  and  _536
REMARK  210  A    between atoms: _536  and  _537
REMARK  211  A    between atoms: _543  and  _545
REMARK  212  A    between atoms: _545  and  _546
REMARK  213  A    between atoms: _549  and  _551
REMARK  214  A    between atoms: _551  and  _552
REMARK  215  A    between atoms: _551  and  _554
REMARK  216  A    between atoms: _554  and  _555
REMARK  217  A    between atoms: _560  and  _562
REMARK  218  A    between atoms: _562  and  _563
REMARK  219  A    between atoms: _562  and  _565
REMARK  220  A    between atoms: _565  and  _566
REMARK  221  A    between atoms: _571  and  _573
REMARK  222  A    between atoms: _573  and  _574
REMARK  223  A    between atoms: _573  and  _576
REMARK  224  A    between atoms: _576  and  _577
REMARK  225  A    between atoms: _580  and  _582
REMARK  226  A    between atoms: _582  and  _583
REMARK  227  A    between atoms: _582  and  _585
REMARK  228  A    between atoms: _585  and  _586
REMARK  229  A    between atoms: _591  and  _593
REMARK  230  A    between atoms: _593  and  _594
REMARK  231  A    between atoms: _593  and  _596
REMARK  232  A    between atoms: _596  and  _597
REMARK  233  A    between atoms: _597  and  _598
REMARK  234  A    between atoms: _598  and  _599
REMARK  235  A    between atoms: _608  and  _610
REMARK  236  A    between atoms: _610  and  _611
REMARK  237  A    between atoms: _613  and  _615
REMARK  238  A    between atoms: _615  and  _616
REMARK  239  A    between atoms: _615  and  _618
REMARK  240  A    between atoms: _618  and  _619
REMARK  241  A    between atoms: _624  and  _626
REMARK  242  A    between atoms: _626  and  _627
REMARK  243  A    between atoms: _629  and  _631
REMARK  244  A    between atoms: _631  and  _632
REMARK  245  A    between atoms: _635  and  _637
REMARK  246  A    between atoms: _637  and  _638
REMARK  247  A    between atoms: _640  and  _642
REMARK  248  A    between atoms: _642  and  _643
REMARK  249  A    between atoms: _645  and  _647
REMARK  250  A    between atoms: _647  and  _648
REMARK  251  A    between atoms: _651  and  _653
REMARK  252  A    between atoms: _653  and  _654
REMARK  253  A    between atoms: _653  and  _656
REMARK  254  A    between atoms: _656  and  _657
REMARK  255  A    between atoms: _657  and  _658
REMARK  256  A    between atoms: _658  and  _659
REMARK  257  A    between atoms: _668  and  _670
REMARK  258  A    between atoms: _670  and  _671
REMARK  259  A    between atoms: _670  and  _673
REMARK  260  A    between atoms: _673  and  _674
REMARK  261  A    between atoms: _677  and  _679
REMARK  262  A    between atoms: _679  and  _680
REMARK  263  A    between atoms: _679  and  _682
REMARK  264  A    between atoms: _682  and  _683
REMARK                            x       y       z     vdW  Elec       q    Type
REMARK                         _______ _______ _______ _____ _____    ______ ____
ROOT
ATOM      1  O   HOH     1      -2.936 -10.036 -31.624  0.00  0.00    +0.000 OA
ENDROOT
TORSDOF 0
REMARK  Name = ../refined-set-2016/3old/3old_pocket.pdb
REMARK  264 active torsions:
REMARK  status: ('A' for Active; 'I' for Inactive)
REMARK    1  A    between atoms: _1  and  _3
REMARK    2  A    between atoms: _3  and  _4
REMARK    3  A    between atoms: _3  and  _6
REMARK    4  A    between atoms: _6  and  _7
REMARK    5  A    between atoms: _12  and  _14
REMARK    6  A    between atoms: _14  and  _15
REMARK    7  A    between atoms: _14  and  _17
REMARK    8  A    between atoms: _17  and  _18
REMARK    9  A    between atoms: _24  and  _26
REMARK   10  A    between atoms: _26  and  _27
REMARK   11  A    between atoms: _26  and  _29
REMARK   12  A    between atoms: _29  and  _30
REMARK   13  A    between atoms: _30  and  _31
REMARK   14  A    between atoms: _37  and  _38
REMARK   15  A    between atoms: _43  and  _45
REMARK   16  A    between atoms: _45  and  _46
REMARK   17  A    between atoms: _45  and  _48
REMARK   18  A    between atoms: _48  and  _49
REMARK   19  A    between atoms: _54  and  _56
REMARK   20  A    between atoms: _56  and  _57
REMARK   21  A    between atoms: _56  and  _59
REMARK   22  A    between atoms: _62  and  _64
REMARK   23  A    between atoms: _64  and  _65
REMARK   24  A    between atoms: _64  and  _67
REMARK   25  A    between atoms: _67  and  _68
REMARK   26  A    between atoms: _72  and  _73
REMARK   27  A    between atoms: _79  and  _80
REMARK   28  A    between atoms: _85  and  _87
REMARK   29  A    between atoms: _87  and  _88
REMARK   30  A    between atoms: _87  and  _90
REMARK   31  A    between atoms: _90  and  _91
REMARK   32  A    between atoms: _101  and  _103
REMARK   33  A    between atoms: _103  and  _104
REMARK   34  A    between atoms: _103  and  _106
REMARK   35  A    between atoms: _106  and  _107
REMARK   36  A    between atoms: _117  and  _119
REMARK   37  A    between atoms: _119  and  _120
REMARK   38  A    between atoms: _119  and  _122
REMARK   39  A    between atoms: _122  and  _123
REMARK   40  A    between atoms: _123  and  _124
REMARK   41  A    between atoms: _127  and  _129
REMARK   42  A    between atoms: _129  and  _130
REMARK   43  A    between atoms: _129  and  _132
REMARK   44  A    between atoms: _132  and  _133
REMARK   45  A    between atoms: _133  and  _134
REMARK   46  A    between atoms: _134  and  _135
REMARK   47  A    between atoms: _144  and  _146
REMARK   48  A    between atoms: _146  and  _147
REMARK   49  A    between atoms: _146  and  _149
REMARK   50  A    between atoms: _149  and  _150
REMARK   51  A    between atoms: _155  and  _156
REMARK   52  A    between atoms: _158  and  _160
REMARK   53  A    between atoms: _160  and  _161
REMARK   54  A    between atoms: _160  and  _163
REMARK   55  A    between atoms: _163  and  _164
REMARK   56  A    between atoms: _164  and  _165
REMARK   57  A    between atoms: _171  and  _172
REMARK   58  A    between atoms: _177  and  _179
REMARK   59  A    between atoms: _179  and  _180
REMARK   60  A    between atoms: _179  and  _182
REMARK   61  A    between atoms: _182  and  _183
REMARK   62  A    between atoms: _186  and  _188
REMARK   63  A    between atoms: _188  and  _189
REMARK   64  A    between atoms: _192  and  _194
REMARK   65  A    between atoms: _194  and  _195
REMARK   66  A    between atoms: _194  and  _197
REMARK   67  A    between atoms: _200  and  _202
REMARK   68  A    between atoms: _202  and  _203
REMARK   69  A    between atoms: _202  and  _205
REMARK   70  A    between atoms: _205  and  _206
REMARK   71  A    between atoms: _209  and  _211
REMARK   72  A    between atoms: _211  and  _212
REMARK   73  A    between atoms: _211  and  _214
REMARK   74  A    between atoms: _214  and  _215
REMARK   75  A    between atoms: _220  and  _222
REMARK   76  A    between atoms: _222  and  _223
REMARK   77  A    between atoms: _222  and  _225
REMARK   78  A    between atoms: _225  and  _226
REMARK   79  A    between atoms: _231  and  _233
REMARK   80  A    between atoms: _233  and  _234
REMARK   81  A    between atoms: _233  and  _236
REMARK   82  A    between atoms: _236  and  _237
REMARK   83  A    between atoms: _237  and  _238
REMARK   84  A    between atoms: _240  and  _242
REMARK   85  A    between atoms: _242  and  _243
REMARK   86  A    between atoms: _242  and  _245
REMARK   87  A    between atoms: _247  and  _249
REMARK   88  A    between atoms: _249  and  _250
REMARK   89  A    between atoms: _252  and  _254
REMARK   90  A    between atoms: _254  and  _255
REMARK   91  A    between atoms: _254  and  _257
REMARK   92  A    between atoms: _257  and  _258
REMARK   93  A    between atoms: _263  and  _265
REMARK   94  A    between atoms: _265  and  _266
REMARK   95  A    between atoms: _269  and  _271
REMARK   96  A    between atoms: _271  and  _272
REMARK   97  A    between atoms: _271  and  _274
REMARK   98  A    between atoms: _277  and  _279
REMARK   99  A    between atoms: _279  and  _280
REMARK  100  A    between atoms: _279  and  _282
REMARK  101  A    between atoms: _282  and  _283
REMARK  102  A    between atoms: _286  and  _288
REMARK  103  A    between atoms: _288  and  _289
REMARK  104  A    between atoms: _288  and  _291
REMARK  105  A    between atoms: _291  and  _292
REMARK  106  A    between atoms: _295  and  _297
REMARK  107  A    between atoms: _297  and  _298
REMARK  108  A    between atoms: _297  and  _300
REMARK  109  A    between atoms: _300  and  _301
REMARK  110  A    between atoms: _306  and  _307
REMARK  111  A    between atoms: _309  and  _311
REMARK  112  A    between atoms: _311  and  _312
REMARK  113  A    between atoms: _311  and  _314
REMARK  114  A    between atoms: _317  and  _319
REMARK  115  A    between atoms: _319  and  _320
REMARK  116  A    between atoms: _319  and  _322
REMARK  117  A    between atoms: _322  and  _323
REMARK  118  A    between atoms: _323  and  _324
REMARK  119  A    between atoms: _324  and  _325
REMARK  120  A    between atoms: _334  and  _336
REMARK  121  A    between atoms: _336  and  _337
REMARK  122  A    between atoms: _336  and  _339
REMARK  123  A    between atoms: _339  and  _340
REMARK  124  A    between atoms: _343  and  _345
REMARK  125  A    between atoms: _345  and  _346
REMARK  126  A    between atoms: _345  and  _348
REMARK  127  A    between atoms: _348  and  _349
REMARK  128  A    between atoms: _352  and  _354
REMARK  129  A    between atoms: _354  and  _355
REMARK  130  A    between atoms: _357  and  _359
REMARK  131  A    between atoms: _359  and  _360
REMARK  132  A    between atoms: _359  and  _362
REMARK  133  A    between atoms: _362  and  _363
REMARK  134  A    between atoms: _366  and  _368
REMARK  135  A    between atoms: _368  and  _369
REMARK  136  A    between atoms: _368  and  _371
REMARK  137  A    between atoms: _371  and  _372
REMARK  138  A    between atoms: _375  and  _377
REMARK  139  A    between atoms: _377  and  _378
REMARK  140  A    between atoms: _377  and  _380
REMARK  141  A    between atoms: _380  and  _381
REMARK  142  A    between atoms: _381  and  _382
REMARK  143  A    between atoms: _382  and  _383
REMARK  144  A    between atoms: _392  and  _394
REMARK  145  A    between atoms: _394  and  _395
REMARK  146  A    between atoms: _394  and  _397
REMARK  147  A    between atoms: _397  and  _398
REMARK  148  A    between atoms: _401  and  _403
REMARK  149  A    between atoms: _403  and  _404
REMARK  150  A    between atoms: _403  and  _406
REMARK  151  A    between atoms: _406  and  _407
REMARK  152  A    between atoms: _410  and  _412
REMARK  153  A    between atoms: _412  and  _413
REMARK  154  A    between atoms: _416  and  _418
REMARK  155  A    between atoms: _418  and  _419
REMARK  156  A    between atoms: _418  and  _421
REMARK  157  A    between atoms: _421  and  _422
REMARK  158  A    between atoms: _424  and  _426
REMARK  159  A    between atoms: _426  and  _427
REMARK  160  A    between atoms: _426  and  _429
REMARK  161  A    between atoms: _429  and  _430
REMARK  162  A    between atoms: _430  and  _431
REMARK  163  A    between atoms: _431  and  _432
REMARK  164  A    between atoms: _432  and  _433
REMARK  165  A    between atoms: _437  and  _439
REMARK  166  A    between atoms: _439  and  _440
REMARK  167  A    between atoms: _439  and  _442
REMARK  168  A    between atoms: _442  and  _443
REMARK  169  A    between atoms: _448  and  _450
REMARK  170  A    between atoms: _450  and  _451
REMARK  171  A    between atoms: _450  and  _453
REMARK  172  A    between atoms: _453  and  _454
REMARK  173  A    between atoms: _454  and  _455
REMARK  174  A    between atoms: _457  and  _459
REMARK  175  A    between atoms: _459  and  _460
REMARK  176  A    between atoms: _459  and  _462
REMARK  177  A    between atoms: _462  and  _463
REMARK  178  A    between atoms: _463  and  _464
REMARK  179  A    between atoms: _467  and  _469
REMARK  180  A    between atoms: _469  and  _470
REMARK  181  A    between atoms: _469  and  _472
REMARK  182  A    between atoms: _475  and  _477
REMARK  183  A    between atoms: _477  and  _478
REMARK  184  A    between atoms: _477  and  _480
REMARK  185  A    between atoms: _480  and  _481
REMARK  186  A    between atoms: _484  and  _486
REMARK  187  A    between atoms: _486  and  _487
REMARK  188  A    between atoms: _486  and  _489
REMARK  189  A    between atoms: _489  and  _490
REMARK  190  A    between atoms: _493  and  _495
REMARK  191  A    between atoms: _495  and  _496
REMARK  192  A    between atoms: _495  and  _498
REMARK  193  A    between atoms: _498  and  _499
REMARK  194  A    between atoms: _502  and  _504
REMARK  195  A    between atoms: _504  and  _505
REMARK  196  A    between atoms: _507  and  _509
REMARK  197  A    between atoms: _509  and  _510
REMARK  198  A    between atoms: _512  and  _514
REMARK  199  A    between atoms: _514  and  _515
REMARK  200  A    between atoms: _514  and  _517
REMARK  201  A    between atoms: _517  and  _518
REMARK  202  A    between atoms: _518  and  _519
REMARK  203  A    between atoms: _522  and  _524
REMARK  204  A    between atoms: _524  and  _525
REMARK  205  A    between atoms: _524  and  _527
REMARK  206  A    between atoms: _527  and  _528
REMARK  207  A    between atoms: _531  and  _533
REMARK  208  A    between atoms: _533  and  _534
REMARK  209  A    between atoms: _533  and  _536
REMARK  210  A    between atoms: _536  and  _537
REMARK  211  A    between atoms: _543  and  _545
REMARK  212  A    between atoms: _545  and  _546
REMARK  213  A    between atoms: _549  and  _551
REMARK  214  A    between atoms: _551  and  _552
REMARK  215  A    between atoms: _551  and  _554
REMARK  216  A    between atoms: _554  and  _555
REMARK  217  A    between atoms: _560  and  _562
REMARK  218  A    between atoms: _562  and  _563
REMARK  219  A    between atoms: _562  and  _565
REMARK  220  A    between atoms: _565  and  _566
REMARK  221  A    between atoms: _571  and  _573
REMARK  222  A    between atoms: _573  and  _574
REMARK  223  A    between atoms: _573  and  _576
REMARK  224  A    between atoms: _576  and  _577
REMARK  225  A    between atoms: _580  and  _582
REMARK  226  A    between atoms: _582  and  _583
REMARK  227  A    between atoms: _582  and  _585
REMARK  228  A    between atoms: _585  and  _586
REMARK  229  A    between atoms: _591  and  _593
REMARK  230  A    between atoms: _593  and  _594
REMARK  231  A    between atoms: _593  and  _596
REMARK  232  A    between atoms: _596  and  _597
REMARK  233  A    between atoms: _597  and  _598
REMARK  234  A    between atoms: _598  and  _599
REMARK  235  A    between atoms: _608  and  _610
REMARK  236  A    between atoms: _610  and  _611
REMARK  237  A    between atoms: _613  and  _615
REMARK  238  A    between atoms: _615  and  _616
REMARK  239  A    between atoms: _615  and  _618
REMARK  240  A    between atoms: _618  and  _619
REMARK  241  A    between atoms: _624  and  _626
REMARK  242  A    between atoms: _626  and  _627
REMARK  243  A    between atoms: _629  and  _631
REMARK  244  A    between atoms: _631  and  _632
REMARK  245  A    between atoms: _635  and  _637
REMARK  246  A    between atoms: _637  and  _638
REMARK  247  A    between atoms: _640  and  _642
REMARK  248  A    between atoms: _642  and  _643
REMARK  249  A    between atoms: _645  and  _647
REMARK  250  A    between atoms: _647  and  _648
REMARK  251  A    between atoms: _651  and  _653
REMARK  252  A    between atoms: _653  and  _654
REMARK  253  A    between atoms: _653  and  _656
REMARK  254  A    between atoms: _656  and  _657
REMARK  255  A    between atoms: _657  and  _658
REMARK  256  A    between atoms: _658  and  _659
REMARK  257  A    between atoms: _668  and  _670
REMARK  258  A    between atoms: _670  and  _671
REMARK  259  A    between atoms: _670  and  _673
REMARK  260  A    between atoms: _673  and  _674
REMARK  261  A    between atoms: _677  and  _679
REMARK  262  A    between atoms: _679  and  _680
REMARK  263  A    between atoms: _679  and  _682
REMARK  264  A    between atoms: _682  and  _683
REMARK                            x       y       z     vdW  Elec       q    Type
REMARK                         _______ _______ _______ _____ _____    ______ ____
ROOT
ATOM      1  O   HOH     1      20.306 -21.351 -28.717  0.00  0.00    +0.000 OA
ENDROOT
TORSDOF 0
REMARK  Name = ../refined-set-2016/3old/3old_pocket.pdb
REMARK  264 active torsions:
REMARK  status: ('A' for Active; 'I' for Inactive)
REMARK    1  A    between atoms: _1  and  _3
REMARK    2  A    between atoms: _3  and  _4
REMARK    3  A    between atoms: _3  and  _6
REMARK    4  A    between atoms: _6  and  _7
REMARK    5  A    between atoms: _12  and  _14
REMARK    6  A    between atoms: _14  and  _15
REMARK    7  A    between atoms: _14  and  _17
REMARK    8  A    between atoms: _17  and  _18
REMARK    9  A    between atoms: _24  and  _26
REMARK   10  A    between atoms: _26  and  _27
REMARK   11  A    between atoms: _26  and  _29
REMARK   12  A    between atoms: _29  and  _30
REMARK   13  A    between atoms: _30  and  _31
REMARK   14  A    between atoms: _37  and  _38
REMARK   15  A    between atoms: _43  and  _45
REMARK   16  A    between atoms: _45  and  _46
REMARK   17  A    between atoms: _45  and  _48
REMARK   18  A    between atoms: _48  and  _49
REMARK   19  A    between atoms: _54  and  _56
REMARK   20  A    between atoms: _56  and  _57
REMARK   21  A    between atoms: _56  and  _59
REMARK   22  A    between atoms: _62  and  _64
REMARK   23  A    between atoms: _64  and  _65
REMARK   24  A    between atoms: _64  and  _67
REMARK   25  A    between atoms: _67  and  _68
REMARK   26  A    between atoms: _72  and  _73
REMARK   27  A    between atoms: _79  and  _80
REMARK   28  A    between atoms: _85  and  _87
REMARK   29  A    between atoms: _87  and  _88
REMARK   30  A    between atoms: _87  and  _90
REMARK   31  A    between atoms: _90  and  _91
REMARK   32  A    between atoms: _101  and  _103
REMARK   33  A    between atoms: _103  and  _104
REMARK   34  A    between atoms: _103  and  _106
REMARK   35  A    between atoms: _106  and  _107
REMARK   36  A    between atoms: _117  and  _119
REMARK   37  A    between atoms: _119  and  _120
REMARK   38  A    between atoms: _119  and  _122
REMARK   39  A    between atoms: _122  and  _123
REMARK   40  A    between atoms: _123  and  _124
REMARK   41  A    between atoms: _127  and  _129
REMARK   42  A    between atoms: _129  and  _130
REMARK   43  A    between atoms: _129  and  _132
REMARK   44  A    between atoms: _132  and  _133
REMARK   45  A    between atoms: _133  and  _134
REMARK   46  A    between atoms: _134  and  _135
REMARK   47  A    between atoms: _144  and  _146
REMARK   48  A    between atoms: _146  and  _147
REMARK   49  A    between atoms: _146  and  _149
REMARK   50  A    between atoms: _149  and  _150
REMARK   51  A    between atoms: _155  and  _156
REMARK   52  A    between atoms: _158  and  _160
REMARK   53  A    between atoms: _160  and  _161
REMARK   54  A    between atoms: _160  and  _163
REMARK   55  A    between atoms: _163  and  _164
REMARK   56  A    between atoms: _164  and  _165
REMARK   57  A    between atoms: _171  and  _172
REMARK   58  A    between atoms: _177  and  _179
REMARK   59  A    between atoms: _179  and  _180
REMARK   60  A    between atoms: _179  and  _182
REMARK   61  A    between atoms: _182  and  _183
REMARK   62  A    between atoms: _186  and  _188
REMARK   63  A    between atoms: _188  and  _189
REMARK   64  A    between atoms: _192  and  _194
REMARK   65  A    between atoms: _194  and  _195
REMARK   66  A    between atoms: _194  and  _197
REMARK   67  A    between atoms: _200  and  _202
REMARK   68  A    between atoms: _202  and  _203
REMARK   69  A    between atoms: _202  and  _205
REMARK   70  A    between atoms: _205  and  _206
REMARK   71  A    between atoms: _209  and  _211
REMARK   72  A    between atoms: _211  and  _212
REMARK   73  A    between atoms: _211  and  _214
REMARK   74  A    between atoms: _214  and  _215
REMARK   75  A    between atoms: _220  and  _222
REMARK   76  A    between atoms: _222  and  _223
REMARK   77  A    between atoms: _222  and  _225
REMARK   78  A    between atoms: _225  and  _226
REMARK   79  A    between atoms: _231  and  _233
REMARK   80  A    between atoms: _233  and  _234
REMARK   81  A    between atoms: _233  and  _236
REMARK   82  A    between atoms: _236  and  _237
REMARK   83  A    between atoms: _237  and  _238
REMARK   84  A    between atoms: _240  and  _242
REMARK   85  A    between atoms: _242  and  _243
REMARK   86  A    between atoms: _242  and  _245
REMARK   87  A    between atoms: _247  and  _249
REMARK   88  A    between atoms: _249  and  _250
REMARK   89  A    between atoms: _252  and  _254
REMARK   90  A    between atoms: _254  and  _255
REMARK   91  A    between atoms: _254  and  _257
REMARK   92  A    between atoms: _257  and  _258
REMARK   93  A    between atoms: _263  and  _265
REMARK   94  A    between atoms: _265  and  _266
REMARK   95  A    between atoms: _269  and  _271
REMARK   96  A    between atoms: _271  and  _272
REMARK   97  A    between atoms: _271  and  _274
REMARK   98  A    between atoms: _277  and  _279
REMARK   99  A    between atoms: _279  and  _280
REMARK  100  A    between atoms: _279  and  _282
REMARK  101  A    between atoms: _282  and  _283
REMARK  102  A    between atoms: _286  and  _288
REMARK  103  A    between atoms: _288  and  _289
REMARK  104  A    between atoms: _288  and  _291
REMARK  105  A    between atoms: _291  and  _292
REMARK  106  A    between atoms: _295  and  _297
REMARK  107  A    between atoms: _297  and  _298
REMARK  108  A    between atoms: _297  and  _300
REMARK  109  A    between atoms: _300  and  _301
REMARK  110  A    between atoms: _306  and  _307
REMARK  111  A    between atoms: _309  and  _311
REMARK  112  A    between atoms: _311  and  _312
REMARK  113  A    between atoms: _311  and  _314
REMARK  114  A    between atoms: _317  and  _319
REMARK  115  A    between atoms: _319  and  _320
REMARK  116  A    between atoms: _319  and  _322
REMARK  117  A    between atoms: _322  and  _323
REMARK  118  A    between atoms: _323  and  _324
REMARK  119  A    between atoms: _324  and  _325
REMARK  120  A    between atoms: _334  and  _336
REMARK  121  A    between atoms: _336  and  _337
REMARK  122  A    between atoms: _336  and  _339
REMARK  123  A    between atoms: _339  and  _340
REMARK  124  A    between atoms: _343  and  _345
REMARK  125  A    between atoms: _345  and  _346
REMARK  126  A    between atoms: _345  and  _348
REMARK  127  A    between atoms: _348  and  _349
REMARK  128  A    between atoms: _352  and  _354
REMARK  129  A    between atoms: _354  and  _355
REMARK  130  A    between atoms: _357  and  _359
REMARK  131  A    between atoms: _359  and  _360
REMARK  132  A    between atoms: _359  and  _362
REMARK  133  A    between atoms: _362  and  _363
REMARK  134  A    between atoms: _366  and  _368
REMARK  135  A    between atoms: _368  and  _369
REMARK  136  A    between atoms: _368  and  _371
REMARK  137  A    between atoms: _371  and  _372
REMARK  138  A    between atoms: _375  and  _377
REMARK  139  A    between atoms: _377  and  _378
REMARK  140  A    between atoms: _377  and  _380
REMARK  141  A    between atoms: _380  and  _381
REMARK  142  A    between atoms: _381  and  _382
REMARK  143  A    between atoms: _382  and  _383
REMARK  144  A    between atoms: _392  and  _394
REMARK  145  A    between atoms: _394  and  _395
REMARK  146  A    between atoms: _394  and  _397
REMARK  147  A    between atoms: _397  and  _398
REMARK  148  A    between atoms: _401  and  _403
REMARK  149  A    between atoms: _403  and  _404
REMARK  150  A    between atoms: _403  and  _406
REMARK  151  A    between atoms: _406  and  _407
REMARK  152  A    between atoms: _410  and  _412
REMARK  153  A    between atoms: _412  and  _413
REMARK  154  A    between atoms: _416  and  _418
REMARK  155  A    between atoms: _418  and  _419
REMARK  156  A    between atoms: _418  and  _421
REMARK  157  A    between atoms: _421  and  _422
REMARK  158  A    between atoms: _424  and  _426
REMARK  159  A    between atoms: _426  and  _427
REMARK  160  A    between atoms: _426  and  _429
REMARK  161  A    between atoms: _429  and  _430
REMARK  162  A    between atoms: _430  and  _431
REMARK  163  A    between atoms: _431  and  _432
REMARK  164  A    between atoms: _432  and  _433
REMARK  165  A    between atoms: _437  and  _439
REMARK  166  A    between atoms: _439  and  _440
REMARK  167  A    between atoms: _439  and  _442
REMARK  168  A    between atoms: _442  and  _443
REMARK  169  A    between atoms: _448  and  _450
REMARK  170  A    between atoms: _450  and  _451
REMARK  171  A    between atoms: _450  and  _453
REMARK  172  A    between atoms: _453  and  _454
REMARK  173  A    between atoms: _454  and  _455
REMARK  174  A    between atoms: _457  and  _459
REMARK  175  A    between atoms: _459  and  _460
REMARK  176  A    between atoms: _459  and  _462
REMARK  177  A    between atoms: _462  and  _463
REMARK  178  A    between atoms: _463  and  _464
REMARK  179  A    between atoms: _467  and  _469
REMARK  180  A    between atoms: _469  and  _470
REMARK  181  A    between atoms: _469  and  _472
REMARK  182  A    between atoms: _475  and  _477
REMARK  183  A    between atoms: _477  and  _478
REMARK  184  A    between atoms: _477  and  _480
REMARK  185  A    between atoms: _480  and  _481
REMARK  186  A    between atoms: _484  and  _486
REMARK  187  A    between atoms: _486  and  _487
REMARK  188  A    between atoms: _486  and  _489
REMARK  189  A    between atoms: _489  and  _490
REMARK  190  A    between atoms: _493  and  _495
REMARK  191  A    between atoms: _495  and  _496
REMARK  192  A    between atoms: _495  and  _498
REMARK  193  A    between atoms: _498  and  _499
REMARK  194  A    between atoms: _502  and  _504
REMARK  195  A    between atoms: _504  and  _505
REMARK  196  A    between atoms: _507  and  _509
REMARK  197  A    between atoms: _509  and  _510
REMARK  198  A    between atoms: _512  and  _514
REMARK  199  A    between atoms: _514  and  _515
REMARK  200  A    between atoms: _514  and  _517
REMARK  201  A    between atoms: _517  and  _518
REMARK  202  A    between atoms: _518  and  _519
REMARK  203  A    between atoms: _522  and  _524
REMARK  204  A    between atoms: _524  and  _525
REMARK  205  A    between atoms: _524  and  _527
REMARK  206  A    between atoms: _527  and  _528
REMARK  207  A    between atoms: _531  and  _533
REMARK  208  A    between atoms: _533  and  _534
REMARK  209  A    between atoms: _533  and  _536
REMARK  210  A    between atoms: _536  and  _537
REMARK  211  A    between atoms: _543  and  _545
REMARK  212  A    between atoms: _545  and  _546
REMARK  213  A    between atoms: _549  and  _551
REMARK  214  A    between atoms: _551  and  _552
REMARK  215  A    between atoms: _551  and  _554
REMARK  216  A    between atoms: _554  and  _555
REMARK  217  A    between atoms: _560  and  _562
REMARK  218  A    between atoms: _562  and  _563
REMARK  219  A    between atoms: _562  and  _565
REMARK  220  A    between atoms: _565  and  _566
REMARK  221  A    between atoms: _571  and  _573
REMARK  222  A    between atoms: _573  and  _574
REMARK  223  A    between atoms: _573  and  _576
REMARK  224  A    between atoms: _576  and  _577
REMARK  225  A    between atoms: _580  and  _582
REMARK  226  A    between atoms: _582  and  _583
REMARK  227  A    between atoms: _582  and  _585
REMARK  228  A    between atoms: _585  and  _586
REMARK  229  A    between atoms: _591  and  _593
REMARK  230  A    between atoms: _593  and  _594
REMARK  231  A    between atoms: _593  and  _596
REMARK  232  A    between atoms: _596  and  _597
REMARK  233  A    between atoms: _597  and  _598
REMARK  234  A    between atoms: _598  and  _599
REMARK  235  A    between atoms: _608  and  _610
REMARK  236  A    between atoms: _610  and  _611
REMARK  237  A    between atoms: _613  and  _615
REMARK  238  A    between atoms: _615  and  _616
REMARK  239  A    between atoms: _615  and  _618
REMARK  240  A    between atoms: _618  and  _619
REMARK  241  A    between atoms: _624  and  _626
REMARK  242  A    between atoms: _626  and  _627
REMARK  243  A    between atoms: _629  and  _631
REMARK  244  A    between atoms: _631  and  _632
REMARK  245  A    between atoms: _635  and  _637
REMARK  246  A    between atoms: _637  and  _638
REMARK  247  A    between atoms: _640  and  _642
REMARK  248  A    between atoms: _642  and  _643
REMARK  249  A    between atoms: _645  and  _647
REMARK  250  A    between atoms: _647  and  _648
REMARK  251  A    between atoms: _651  and  _653
REMARK  252  A    between atoms: _653  and  _654
REMARK  253  A    between atoms: _653  and  _656
REMARK  254  A    between atoms: _656  and  _657
REMARK  255  A    between atoms: _657  and  _658
REMARK  256  A    between atoms: _658  and  _659
REMARK  257  A    between atoms: _668  and  _670
REMARK  258  A    between atoms: _670  and  _671
REMARK  259  A    between atoms: _670  and  _673
REMARK  260  A    between atoms: _673  and  _674
REMARK  261  A    between atoms: _677  and  _679
REMARK  262  A    between atoms: _679  and  _680
REMARK  263  A    between atoms: _679  and  _682
REMARK  264  A    between atoms: _682  and  _683
REMARK                            x       y       z     vdW  Elec       q    Type
REMARK                         _______ _______ _______ _____ _____    ______ ____
ROOT
ATOM      1  O   HOH     1      18.831 -25.689 -29.571  0.00  0.00    +0.000 OA
ENDROOT
TORSDOF 0
REMARK  Name = ../refined-set-2016/3old/3old_pocket.pdb
REMARK  264 active torsions:
REMARK  status: ('A' for Active; 'I' for Inactive)
REMARK    1  A    between atoms: _1  and  _3
REMARK    2  A    between atoms: _3  and  _4
REMARK    3  A    between atoms: _3  and  _6
REMARK    4  A    between atoms: _6  and  _7
REMARK    5  A    between atoms: _12  and  _14
REMARK    6  A    between atoms: _14  and  _15
REMARK    7  A    between atoms: _14  and  _17
REMARK    8  A    between atoms: _17  and  _18
REMARK    9  A    between atoms: _24  and  _26
REMARK   10  A    between atoms: _26  and  _27
REMARK   11  A    between atoms: _26  and  _29
REMARK   12  A    between atoms: _29  and  _30
REMARK   13  A    between atoms: _30  and  _31
REMARK   14  A    between atoms: _37  and  _38
REMARK   15  A    between atoms: _43  and  _45
REMARK   16  A    between atoms: _45  and  _46
REMARK   17  A    between atoms: _45  and  _48
REMARK   18  A    between atoms: _48  and  _49
REMARK   19  A    between atoms: _54  and  _56
REMARK   20  A    between atoms: _56  and  _57
REMARK   21  A    between atoms: _56  and  _59
REMARK   22  A    between atoms: _62  and  _64
REMARK   23  A    between atoms: _64  and  _65
REMARK   24  A    between atoms: _64  and  _67
REMARK   25  A    between atoms: _67  and  _68
REMARK   26  A    between atoms: _72  and  _73
REMARK   27  A    between atoms: _79  and  _80
REMARK   28  A    between atoms: _85  and  _87
REMARK   29  A    between atoms: _87  and  _88
REMARK   30  A    between atoms: _87  and  _90
REMARK   31  A    between atoms: _90  and  _91
REMARK   32  A    between atoms: _101  and  _103
REMARK   33  A    between atoms: _103  and  _104
REMARK   34  A    between atoms: _103  and  _106
REMARK   35  A    between atoms: _106  and  _107
REMARK   36  A    between atoms: _117  and  _119
REMARK   37  A    between atoms: _119  and  _120
REMARK   38  A    between atoms: _119  and  _122
REMARK   39  A    between atoms: _122  and  _123
REMARK   40  A    between atoms: _123  and  _124
REMARK   41  A    between atoms: _127  and  _129
REMARK   42  A    between atoms: _129  and  _130
REMARK   43  A    between atoms: _129  and  _132
REMARK   44  A    between atoms: _132  and  _133
REMARK   45  A    between atoms: _133  and  _134
REMARK   46  A    between atoms: _134  and  _135
REMARK   47  A    between atoms: _144  and  _146
REMARK   48  A    between atoms: _146  and  _147
REMARK   49  A    between atoms: _146  and  _149
REMARK   50  A    between atoms: _149  and  _150
REMARK   51  A    between atoms: _155  and  _156
REMARK   52  A    between atoms: _158  and  _160
REMARK   53  A    between atoms: _160  and  _161
REMARK   54  A    between atoms: _160  and  _163
REMARK   55  A    between atoms: _163  and  _164
REMARK   56  A    between atoms: _164  and  _165
REMARK   57  A    between atoms: _171  and  _172
REMARK   58  A    between atoms: _177  and  _179
REMARK   59  A    between atoms: _179  and  _180
REMARK   60  A    between atoms: _179  and  _182
REMARK   61  A    between atoms: _182  and  _183
REMARK   62  A    between atoms: _186  and  _188
REMARK   63  A    between atoms: _188  and  _189
REMARK   64  A    between atoms: _192  and  _194
REMARK   65  A    between atoms: _194  and  _195
REMARK   66  A    between atoms: _194  and  _197
REMARK   67  A    between atoms: _200  and  _202
REMARK   68  A    between atoms: _202  and  _203
REMARK   69  A    between atoms: _202  and  _205
REMARK   70  A    between atoms: _205  and  _206
REMARK   71  A    between atoms: _209  and  _211
REMARK   72  A    between atoms: _211  and  _212
REMARK   73  A    between atoms: _211  and  _214
REMARK   74  A    between atoms: _214  and  _215
REMARK   75  A    between atoms: _220  and  _222
REMARK   76  A    between atoms: _222  and  _223
REMARK   77  A    between atoms: _222  and  _225
REMARK   78  A    between atoms: _225  and  _226
REMARK   79  A    between atoms: _231  and  _233
REMARK   80  A    between atoms: _233  and  _234
REMARK   81  A    between atoms: _233  and  _236
REMARK   82  A    between atoms: _236  and  _237
REMARK   83  A    between atoms: _237  and  _238
REMARK   84  A    between atoms: _240  and  _242
REMARK   85  A    between atoms: _242  and  _243
REMARK   86  A    between atoms: _242  and  _245
REMARK   87  A    between atoms: _247  and  _249
REMARK   88  A    between atoms: _249  and  _250
REMARK   89  A    between atoms: _252  and  _254
REMARK   90  A    between atoms: _254  and  _255
REMARK   91  A    between atoms: _254  and  _257
REMARK   92  A    between atoms: _257  and  _258
REMARK   93  A    between atoms: _263  and  _265
REMARK   94  A    between atoms: _265  and  _266
REMARK   95  A    between atoms: _269  and  _271
REMARK   96  A    between atoms: _271  and  _272
REMARK   97  A    between atoms: _271  and  _274
REMARK   98  A    between atoms: _277  and  _279
REMARK   99  A    between atoms: _279  and  _280
REMARK  100  A    between atoms: _279  and  _282
REMARK  101  A    between atoms: _282  and  _283
REMARK  102  A    between atoms: _286  and  _288
REMARK  103  A    between atoms: _288  and  _289
REMARK  104  A    between atoms: _288  and  _291
REMARK  105  A    between atoms: _291  and  _292
REMARK  106  A    between atoms: _295  and  _297
REMARK  107  A    between atoms: _297  and  _298
REMARK  108  A    between atoms: _297  and  _300
REMARK  109  A    between atoms: _300  and  _301
REMARK  110  A    between atoms: _306  and  _307
REMARK  111  A    between atoms: _309  and  _311
REMARK  112  A    between atoms: _311  and  _312
REMARK  113  A    between atoms: _311  and  _314
REMARK  114  A    between atoms: _317  and  _319
REMARK  115  A    between atoms: _319  and  _320
REMARK  116  A    between atoms: _319  and  _322
REMARK  117  A    between atoms: _322  and  _323
REMARK  118  A    between atoms: _323  and  _324
REMARK  119  A    between atoms: _324  and  _325
REMARK  120  A    between atoms: _334  and  _336
REMARK  121  A    between atoms: _336  and  _337
REMARK  122  A    between atoms: _336  and  _339
REMARK  123  A    between atoms: _339  and  _340
REMARK  124  A    between atoms: _343  and  _345
REMARK  125  A    between atoms: _345  and  _346
REMARK  126  A    between atoms: _345  and  _348
REMARK  127  A    between atoms: _348  and  _349
REMARK  128  A    between atoms: _352  and  _354
REMARK  129  A    between atoms: _354  and  _355
REMARK  130  A    between atoms: _357  and  _359
REMARK  131  A    between atoms: _359  and  _360
REMARK  132  A    between atoms: _359  and  _362
REMARK  133  A    between atoms: _362  and  _363
REMARK  134  A    between atoms: _366  and  _368
REMARK  135  A    between atoms: _368  and  _369
REMARK  136  A    between atoms: _368  and  _371
REMARK  137  A    between atoms: _371  and  _372
REMARK  138  A    between atoms: _375  and  _377
REMARK  139  A    between atoms: _377  and  _378
REMARK  140  A    between atoms: _377  and  _380
REMARK  141  A    between atoms: _380  and  _381
REMARK  142  A    between atoms: _381  and  _382
REMARK  143  A    between atoms: _382  and  _383
REMARK  144  A    between atoms: _392  and  _394
REMARK  145  A    between atoms: _394  and  _395
REMARK  146  A    between atoms: _394  and  _397
REMARK  147  A    between atoms: _397  and  _398
REMARK  148  A    between atoms: _401  and  _403
REMARK  149  A    between atoms: _403  and  _404
REMARK  150  A    between atoms: _403  and  _406
REMARK  151  A    between atoms: _406  and  _407
REMARK  152  A    between atoms: _410  and  _412
REMARK  153  A    between atoms: _412  and  _413
REMARK  154  A    between atoms: _416  and  _418
REMARK  155  A    between atoms: _418  and  _419
REMARK  156  A    between atoms: _418  and  _421
REMARK  157  A    between atoms: _421  and  _422
REMARK  158  A    between atoms: _424  and  _426
REMARK  159  A    between atoms: _426  and  _427
REMARK  160  A    between atoms: _426  and  _429
REMARK  161  A    between atoms: _429  and  _430
REMARK  162  A    between atoms: _430  and  _431
REMARK  163  A    between atoms: _431  and  _432
REMARK  164  A    between atoms: _432  and  _433
REMARK  165  A    between atoms: _437  and  _439
REMARK  166  A    between atoms: _439  and  _440
REMARK  167  A    between atoms: _439  and  _442
REMARK  168  A    between atoms: _442  and  _443
REMARK  169  A    between atoms: _448  and  _450
REMARK  170  A    between atoms: _450  and  _451
REMARK  171  A    between atoms: _450  and  _453
REMARK  172  A    between atoms: _453  and  _454
REMARK  173  A    between atoms: _454  and  _455
REMARK  174  A    between atoms: _457  and  _459
REMARK  175  A    between atoms: _459  and  _460
REMARK  176  A    between atoms: _459  and  _462
REMARK  177  A    between atoms: _462  and  _463
REMARK  178  A    between atoms: _463  and  _464
REMARK  179  A    between atoms: _467  and  _469
REMARK  180  A    between atoms: _469  and  _470
REMARK  181  A    between atoms: _469  and  _472
REMARK  182  A    between atoms: _475  and  _477
REMARK  183  A    between atoms: _477  and  _478
REMARK  184  A    between atoms: _477  and  _480
REMARK  185  A    between atoms: _480  and  _481
REMARK  186  A    between atoms: _484  and  _486
REMARK  187  A    between atoms: _486  and  _487
REMARK  188  A    between atoms: _486  and  _489
REMARK  189  A    between atoms: _489  and  _490
REMARK  190  A    between atoms: _493  and  _495
REMARK  191  A    between atoms: _495  and  _496
REMARK  192  A    between atoms: _495  and  _498
REMARK  193  A    between atoms: _498  and  _499
REMARK  194  A    between atoms: _502  and  _504
REMARK  195  A    between atoms: _504  and  _505
REMARK  196  A    between atoms: _507  and  _509
REMARK  197  A    between atoms: _509  and  _510
REMARK  198  A    between atoms: _512  and  _514
REMARK  199  A    between atoms: _514  and  _515
REMARK  200  A    between atoms: _514  and  _517
REMARK  201  A    between atoms: _517  and  _518
REMARK  202  A    between atoms: _518  and  _519
REMARK  203  A    between atoms: _522  and  _524
REMARK  204  A    between atoms: _524  and  _525
REMARK  205  A    between atoms: _524  and  _527
REMARK  206  A    between atoms: _527  and  _528
REMARK  207  A    between atoms: _531  and  _533
REMARK  208  A    between atoms: _533  and  _534
REMARK  209  A    between atoms: _533  and  _536
REMARK  210  A    between atoms: _536  and  _537
REMARK  211  A    between atoms: _543  and  _545
REMARK  212  A    between atoms: _545  and  _546
REMARK  213  A    between atoms: _549  and  _551
REMARK  214  A    between atoms: _551  and  _552
REMARK  215  A    between atoms: _551  and  _554
REMARK  216  A    between atoms: _554  and  _555
REMARK  217  A    between atoms: _560  and  _562
REMARK  218  A    between atoms: _562  and  _563
REMARK  219  A    between atoms: _562  and  _565
REMARK  220  A    between atoms: _565  and  _566
REMARK  221  A    between atoms: _571  and  _573
REMARK  222  A    between atoms: _573  and  _574
REMARK  223  A    between atoms: _573  and  _576
REMARK  224  A    between atoms: _576  and  _577
REMARK  225  A    between atoms: _580  and  _582
REMARK  226  A    between atoms: _582  and  _583
REMARK  227  A    between atoms: _582  and  _585
REMARK  228  A    between atoms: _585  and  _586
REMARK  229  A    between atoms: _591  and  _593
REMARK  230  A    between atoms: _593  and  _594
REMARK  231  A    between atoms: _593  and  _596
REMARK  232  A    between atoms: _596  and  _597
REMARK  233  A    between atoms: _597  and  _598
REMARK  234  A    between atoms: _598  and  _599
REMARK  235  A    between atoms: _608  and  _610
REMARK  236  A    between atoms: _610  and  _611
REMARK  237  A    between atoms: _613  and  _615
REMARK  238  A    between atoms: _615  and  _616
REMARK  239  A    between atoms: _615  and  _618
REMARK  240  A    between atoms: _618  and  _619
REMARK  241  A    between atoms: _624  and  _626
REMARK  242  A    between atoms: _626  and  _627
REMARK  243  A    between atoms: _629  and  _631
REMARK  244  A    between atoms: _631  and  _632
REMARK  245  A    between atoms: _635  and  _637
REMARK  246  A    between atoms: _637  and  _638
REMARK  247  A    between atoms: _640  and  _642
REMARK  248  A    between atoms: _642  and  _643
REMARK  249  A    between atoms: _645  and  _647
REMARK  250  A    between atoms: _647  and  _648
REMARK  251  A    between atoms: _651  and  _653
REMARK  252  A    between atoms: _653  and  _654
REMARK  253  A    between atoms: _653  and  _656
REMARK  254  A    between atoms: _656  and  _657
REMARK  255  A    between atoms: _657  and  _658
REMARK  256  A    between atoms: _658  and  _659
REMARK  257  A    between atoms: _668  and  _670
REMARK  258  A    between atoms: _670  and  _671
REMARK  259  A    between atoms: _670  and  _673
REMARK  260  A    between atoms: _673  and  _674
REMARK  261  A    between atoms: _677  and  _679
REMARK  262  A    between atoms: _679  and  _680
REMARK  263  A    between atoms: _679  and  _682
REMARK  264  A    between atoms: _682  and  _683
REMARK                            x       y       z     vdW  Elec       q    Type
REMARK                         _______ _______ _______ _____ _____    ______ ____
ROOT
ATOM      1  O   HOH     1       3.491 -11.369 -28.015  0.00  0.00    +0.000 OA
ENDROOT
TORSDOF 0
REMARK  Name = ../refined-set-2016/3old/3old_pocket.pdb
REMARK  264 active torsions:
REMARK  status: ('A' for Active; 'I' for Inactive)
REMARK    1  A    between atoms: _1  and  _3
REMARK    2  A    between atoms: _3  and  _4
REMARK    3  A    between atoms: _3  and  _6
REMARK    4  A    between atoms: _6  and  _7
REMARK    5  A    between atoms: _12  and  _14
REMARK    6  A    between atoms: _14  and  _15
REMARK    7  A    between atoms: _14  and  _17
REMARK    8  A    between atoms: _17  and  _18
REMARK    9  A    between atoms: _24  and  _26
REMARK   10  A    between atoms: _26  and  _27
REMARK   11  A    between atoms: _26  and  _29
REMARK   12  A    between atoms: _29  and  _30
REMARK   13  A    between atoms: _30  and  _31
REMARK   14  A    between atoms: _37  and  _38
REMARK   15  A    between atoms: _43  and  _45
REMARK   16  A    between atoms: _45  and  _46
REMARK   17  A    between atoms: _45  and  _48
REMARK   18  A    between atoms: _48  and  _49
REMARK   19  A    between atoms: _54  and  _56
REMARK   20  A    between atoms: _56  and  _57
REMARK   21  A    between atoms: _56  and  _59
REMARK   22  A    between atoms: _62  and  _64
REMARK   23  A    between atoms: _64  and  _65
REMARK   24  A    between atoms: _64  and  _67
REMARK   25  A    between atoms: _67  and  _68
REMARK   26  A    between atoms: _72  and  _73
REMARK   27  A    between atoms: _79  and  _80
REMARK   28  A    between atoms: _85  and  _87
REMARK   29  A    between atoms: _87  and  _88
REMARK   30  A    between atoms: _87  and  _90
REMARK   31  A    between atoms: _90  and  _91
REMARK   32  A    between atoms: _101  and  _103
REMARK   33  A    between atoms: _103  and  _104
REMARK   34  A    between atoms: _103  and  _106
REMARK   35  A    between atoms: _106  and  _107
REMARK   36  A    between atoms: _117  and  _119
REMARK   37  A    between atoms: _119  and  _120
REMARK   38  A    between atoms: _119  and  _122
REMARK   39  A    between atoms: _122  and  _123
REMARK   40  A    between atoms: _123  and  _124
REMARK   41  A    between atoms: _127  and  _129
REMARK   42  A    between atoms: _129  and  _130
REMARK   43  A    between atoms: _129  and  _132
REMARK   44  A    between atoms: _132  and  _133
REMARK   45  A    between atoms: _133  and  _134
REMARK   46  A    between atoms: _134  and  _135
REMARK   47  A    between atoms: _144  and  _146
REMARK   48  A    between atoms: _146  and  _147
REMARK   49  A    between atoms: _146  and  _149
REMARK   50  A    between atoms: _149  and  _150
REMARK   51  A    between atoms: _155  and  _156
REMARK   52  A    between atoms: _158  and  _160
REMARK   53  A    between atoms: _160  and  _161
REMARK   54  A    between atoms: _160  and  _163
REMARK   55  A    between atoms: _163  and  _164
REMARK   56  A    between atoms: _164  and  _165
REMARK   57  A    between atoms: _171  and  _172
REMARK   58  A    between atoms: _177  and  _179
REMARK   59  A    between atoms: _179  and  _180
REMARK   60  A    between atoms: _179  and  _182
REMARK   61  A    between atoms: _182  and  _183
REMARK   62  A    between atoms: _186  and  _188
REMARK   63  A    between atoms: _188  and  _189
REMARK   64  A    between atoms: _192  and  _194
REMARK   65  A    between atoms: _194  and  _195
REMARK   66  A    between atoms: _194  and  _197
REMARK   67  A    between atoms: _200  and  _202
REMARK   68  A    between atoms: _202  and  _203
REMARK   69  A    between atoms: _202  and  _205
REMARK   70  A    between atoms: _205  and  _206
REMARK   71  A    between atoms: _209  and  _211
REMARK   72  A    between atoms: _211  and  _212
REMARK   73  A    between atoms: _211  and  _214
REMARK   74  A    between atoms: _214  and  _215
REMARK   75  A    between atoms: _220  and  _222
REMARK   76  A    between atoms: _222  and  _223
REMARK   77  A    between atoms: _222  and  _225
REMARK   78  A    between atoms: _225  and  _226
REMARK   79  A    between atoms: _231  and  _233
REMARK   80  A    between atoms: _233  and  _234
REMARK   81  A    between atoms: _233  and  _236
REMARK   82  A    between atoms: _236  and  _237
REMARK   83  A    between atoms: _237  and  _238
REMARK   84  A    between atoms: _240  and  _242
REMARK   85  A    between atoms: _242  and  _243
REMARK   86  A    between atoms: _242  and  _245
REMARK   87  A    between atoms: _247  and  _249
REMARK   88  A    between atoms: _249  and  _250
REMARK   89  A    between atoms: _252  and  _254
REMARK   90  A    between atoms: _254  and  _255
REMARK   91  A    between atoms: _254  and  _257
REMARK   92  A    between atoms: _257  and  _258
REMARK   93  A    between atoms: _263  and  _265
REMARK   94  A    between atoms: _265  and  _266
REMARK   95  A    between atoms: _269  and  _271
REMARK   96  A    between atoms: _271  and  _272
REMARK   97  A    between atoms: _271  and  _274
REMARK   98  A    between atoms: _277  and  _279
REMARK   99  A    between atoms: _279  and  _280
REMARK  100  A    between atoms: _279  and  _282
REMARK  101  A    between atoms: _282  and  _283
REMARK  102  A    between atoms: _286  and  _288
REMARK  103  A    between atoms: _288  and  _289
REMARK  104  A    between atoms: _288  and  _291
REMARK  105  A    between atoms: _291  and  _292
REMARK  106  A    between atoms: _295  and  _297
REMARK  107  A    between atoms: _297  and  _298
REMARK  108  A    between atoms: _297  and  _300
REMARK  109  A    between atoms: _300  and  _301
REMARK  110  A    between atoms: _306  and  _307
REMARK  111  A    between atoms: _309  and  _311
REMARK  112  A    between atoms: _311  and  _312
REMARK  113  A    between atoms: _311  and  _314
REMARK  114  A    between atoms: _317  and  _319
REMARK  115  A    between atoms: _319  and  _320
REMARK  116  A    between atoms: _319  and  _322
REMARK  117  A    between atoms: _322  and  _323
REMARK  118  A    between atoms: _323  and  _324
REMARK  119  A    between atoms: _324  and  _325
REMARK  120  A    between atoms: _334  and  _336
REMARK  121  A    between atoms: _336  and  _337
REMARK  122  A    between atoms: _336  and  _339
REMARK  123  A    between atoms: _339  and  _340
REMARK  124  A    between atoms: _343  and  _345
REMARK  125  A    between atoms: _345  and  _346
REMARK  126  A    between atoms: _345  and  _348
REMARK  127  A    between atoms: _348  and  _349
REMARK  128  A    between atoms: _352  and  _354
REMARK  129  A    between atoms: _354  and  _355
REMARK  130  A    between atoms: _357  and  _359
REMARK  131  A    between atoms: _359  and  _360
REMARK  132  A    between atoms: _359  and  _362
REMARK  133  A    between atoms: _362  and  _363
REMARK  134  A    between atoms: _366  and  _368
REMARK  135  A    between atoms: _368  and  _369
REMARK  136  A    between atoms: _368  and  _371
REMARK  137  A    between atoms: _371  and  _372
REMARK  138  A    between atoms: _375  and  _377
REMARK  139  A    between atoms: _377  and  _378
REMARK  140  A    between atoms: _377  and  _380
REMARK  141  A    between atoms: _380  and  _381
REMARK  142  A    between atoms: _381  and  _382
REMARK  143  A    between atoms: _382  and  _383
REMARK  144  A    between atoms: _392  and  _394
REMARK  145  A    between atoms: _394  and  _395
REMARK  146  A    between atoms: _394  and  _397
REMARK  147  A    between atoms: _397  and  _398
REMARK  148  A    between atoms: _401  and  _403
REMARK  149  A    between atoms: _403  and  _404
REMARK  150  A    between atoms: _403  and  _406
REMARK  151  A    between atoms: _406  and  _407
REMARK  152  A    between atoms: _410  and  _412
REMARK  153  A    between atoms: _412  and  _413
REMARK  154  A    between atoms: _416  and  _418
REMARK  155  A    between atoms: _418  and  _419
REMARK  156  A    between atoms: _418  and  _421
REMARK  157  A    between atoms: _421  and  _422
REMARK  158  A    between atoms: _424  and  _426
REMARK  159  A    between atoms: _426  and  _427
REMARK  160  A    between atoms: _426  and  _429
REMARK  161  A    between atoms: _429  and  _430
REMARK  162  A    between atoms: _430  and  _431
REMARK  163  A    between atoms: _431  and  _432
REMARK  164  A    between atoms: _432  and  _433
REMARK  165  A    between atoms: _437  and  _439
REMARK  166  A    between atoms: _439  and  _440
REMARK  167  A    between atoms: _439  and  _442
REMARK  168  A    between atoms: _442  and  _443
REMARK  169  A    between atoms: _448  and  _450
REMARK  170  A    between atoms: _450  and  _451
REMARK  171  A    between atoms: _450  and  _453
REMARK  172  A    between atoms: _453  and  _454
REMARK  173  A    between atoms: _454  and  _455
REMARK  174  A    between atoms: _457  and  _459
REMARK  175  A    between atoms: _459  and  _460
REMARK  176  A    between atoms: _459  and  _462
REMARK  177  A    between atoms: _462  and  _463
REMARK  178  A    between atoms: _463  and  _464
REMARK  179  A    between atoms: _467  and  _469
REMARK  180  A    between atoms: _469  and  _470
REMARK  181  A    between atoms: _469  and  _472
REMARK  182  A    between atoms: _475  and  _477
REMARK  183  A    between atoms: _477  and  _478
REMARK  184  A    between atoms: _477  and  _480
REMARK  185  A    between atoms: _480  and  _481
REMARK  186  A    between atoms: _484  and  _486
REMARK  187  A    between atoms: _486  and  _487
REMARK  188  A    between atoms: _486  and  _489
REMARK  189  A    between atoms: _489  and  _490
REMARK  190  A    between atoms: _493  and  _495
REMARK  191  A    between atoms: _495  and  _496
REMARK  192  A    between atoms: _495  and  _498
REMARK  193  A    between atoms: _498  and  _499
REMARK  194  A    between atoms: _502  and  _504
REMARK  195  A    between atoms: _504  and  _505
REMARK  196  A    between atoms: _507  and  _509
REMARK  197  A    between atoms: _509  and  _510
REMARK  198  A    between atoms: _512  and  _514
REMARK  199  A    between atoms: _514  and  _515
REMARK  200  A    between atoms: _514  and  _517
REMARK  201  A    between atoms: _517  and  _518
REMARK  202  A    between atoms: _518  and  _519
REMARK  203  A    between atoms: _522  and  _524
REMARK  204  A    between atoms: _524  and  _525
REMARK  205  A    between atoms: _524  and  _527
REMARK  206  A    between atoms: _527  and  _528
REMARK  207  A    between atoms: _531  and  _533
REMARK  208  A    between atoms: _533  and  _534
REMARK  209  A    between atoms: _533  and  _536
REMARK  210  A    between atoms: _536  and  _537
REMARK  211  A    between atoms: _543  and  _545
REMARK  212  A    between atoms: _545  and  _546
REMARK  213  A    between atoms: _549  and  _551
REMARK  214  A    between atoms: _551  and  _552
REMARK  215  A    between atoms: _551  and  _554
REMARK  216  A    between atoms: _554  and  _555
REMARK  217  A    between atoms: _560  and  _562
REMARK  218  A    between atoms: _562  and  _563
REMARK  219  A    between atoms: _562  and  _565
REMARK  220  A    between atoms: _565  and  _566
REMARK  221  A    between atoms: _571  and  _573
REMARK  222  A    between atoms: _573  and  _574
REMARK  223  A    between atoms: _573  and  _576
REMARK  224  A    between atoms: _576  and  _577
REMARK  225  A    between atoms: _580  and  _582
REMARK  226  A    between atoms: _582  and  _583
REMARK  227  A    between atoms: _582  and  _585
REMARK  228  A    between atoms: _585  and  _586
REMARK  229  A    between atoms: _591  and  _593
REMARK  230  A    between atoms: _593  and  _594
REMARK  231  A    between atoms: _593  and  _596
REMARK  232  A    between atoms: _596  and  _597
REMARK  233  A    between atoms: _597  and  _598
REMARK  234  A    between atoms: _598  and  _599
REMARK  235  A    between atoms: _608  and  _610
REMARK  236  A    between atoms: _610  and  _611
REMARK  237  A    between atoms: _613  and  _615
REMARK  238  A    between atoms: _615  and  _616
REMARK  239  A    between atoms: _615  and  _618
REMARK  240  A    between atoms: _618  and  _619
REMARK  241  A    between atoms: _624  and  _626
REMARK  242  A    between atoms: _626  and  _627
REMARK  243  A    between atoms: _629  and  _631
REMARK  244  A    between atoms: _631  and  _632
REMARK  245  A    between atoms: _635  and  _637
REMARK  246  A    between atoms: _637  and  _638
REMARK  247  A    between atoms: _640  and  _642
REMARK  248  A    between atoms: _642  and  _643
REMARK  249  A    between atoms: _645  and  _647
REMARK  250  A    between atoms: _647  and  _648
REMARK  251  A    between atoms: _651  and  _653
REMARK  252  A    between atoms: _653  and  _654
REMARK  253  A    between atoms: _653  and  _656
REMARK  254  A    between atoms: _656  and  _657
REMARK  255  A    between atoms: _657  and  _658
REMARK  256  A    between atoms: _658  and  _659
REMARK  257  A    between atoms: _668  and  _670
REMARK  258  A    between atoms: _670  and  _671
REMARK  259  A    between atoms: _670  and  _673
REMARK  260  A    between atoms: _673  and  _674
REMARK  261  A    between atoms: _677  and  _679
REMARK  262  A    between atoms: _679  and  _680
REMARK  263  A    between atoms: _679  and  _682
REMARK  264  A    between atoms: _682  and  _683
REMARK                            x       y       z     vdW  Elec       q    Type
REMARK                         _______ _______ _______ _____ _____    ______ ____
ROOT
ATOM      1  O   HOH     1      25.080 -21.124 -30.845  0.00  0.00    +0.000 OA
ENDROOT
TORSDOF 0
REMARK  Name = ../refined-set-2016/3old/3old_pocket.pdb
REMARK  264 active torsions:
REMARK  status: ('A' for Active; 'I' for Inactive)
REMARK    1  A    between atoms: _1  and  _3
REMARK    2  A    between atoms: _3  and  _4
REMARK    3  A    between atoms: _3  and  _6
REMARK    4  A    between atoms: _6  and  _7
REMARK    5  A    between atoms: _12  and  _14
REMARK    6  A    between atoms: _14  and  _15
REMARK    7  A    between atoms: _14  and  _17
REMARK    8  A    between atoms: _17  and  _18
REMARK    9  A    between atoms: _24  and  _26
REMARK   10  A    between atoms: _26  and  _27
REMARK   11  A    between atoms: _26  and  _29
REMARK   12  A    between atoms: _29  and  _30
REMARK   13  A    between atoms: _30  and  _31
REMARK   14  A    between atoms: _37  and  _38
REMARK   15  A    between atoms: _43  and  _45
REMARK   16  A    between atoms: _45  and  _46
REMARK   17  A    between atoms: _45  and  _48
REMARK   18  A    between atoms: _48  and  _49
REMARK   19  A    between atoms: _54  and  _56
REMARK   20  A    between atoms: _56  and  _57
REMARK   21  A    between atoms: _56  and  _59
REMARK   22  A    between atoms: _62  and  _64
REMARK   23  A    between atoms: _64  and  _65
REMARK   24  A    between atoms: _64  and  _67
REMARK   25  A    between atoms: _67  and  _68
REMARK   26  A    between atoms: _72  and  _73
REMARK   27  A    between atoms: _79  and  _80
REMARK   28  A    between atoms: _85  and  _87
REMARK   29  A    between atoms: _87  and  _88
REMARK   30  A    between atoms: _87  and  _90
REMARK   31  A    between atoms: _90  and  _91
REMARK   32  A    between atoms: _101  and  _103
REMARK   33  A    between atoms: _103  and  _104
REMARK   34  A    between atoms: _103  and  _106
REMARK   35  A    between atoms: _106  and  _107
REMARK   36  A    between atoms: _117  and  _119
REMARK   37  A    between atoms: _119  and  _120
REMARK   38  A    between atoms: _119  and  _122
REMARK   39  A    between atoms: _122  and  _123
REMARK   40  A    between atoms: _123  and  _124
REMARK   41  A    between atoms: _127  and  _129
REMARK   42  A    between atoms: _129  and  _130
REMARK   43  A    between atoms: _129  and  _132
REMARK   44  A    between atoms: _132  and  _133
REMARK   45  A    between atoms: _133  and  _134
REMARK   46  A    between atoms: _134  and  _135
REMARK   47  A    between atoms: _144  and  _146
REMARK   48  A    between atoms: _146  and  _147
REMARK   49  A    between atoms: _146  and  _149
REMARK   50  A    between atoms: _149  and  _150
REMARK   51  A    between atoms: _155  and  _156
REMARK   52  A    between atoms: _158  and  _160
REMARK   53  A    between atoms: _160  and  _161
REMARK   54  A    between atoms: _160  and  _163
REMARK   55  A    between atoms: _163  and  _164
REMARK   56  A    between atoms: _164  and  _165
REMARK   57  A    between atoms: _171  and  _172
REMARK   58  A    between atoms: _177  and  _179
REMARK   59  A    between atoms: _179  and  _180
REMARK   60  A    between atoms: _179  and  _182
REMARK   61  A    between atoms: _182  and  _183
REMARK   62  A    between atoms: _186  and  _188
REMARK   63  A    between atoms: _188  and  _189
REMARK   64  A    between atoms: _192  and  _194
REMARK   65  A    between atoms: _194  and  _195
REMARK   66  A    between atoms: _194  and  _197
REMARK   67  A    between atoms: _200  and  _202
REMARK   68  A    between atoms: _202  and  _203
REMARK   69  A    between atoms: _202  and  _205
REMARK   70  A    between atoms: _205  and  _206
REMARK   71  A    between atoms: _209  and  _211
REMARK   72  A    between atoms: _211  and  _212
REMARK   73  A    between atoms: _211  and  _214
REMARK   74  A    between atoms: _214  and  _215
REMARK   75  A    between atoms: _220  and  _222
REMARK   76  A    between atoms: _222  and  _223
REMARK   77  A    between atoms: _222  and  _225
REMARK   78  A    between atoms: _225  and  _226
REMARK   79  A    between atoms: _231  and  _233
REMARK   80  A    between atoms: _233  and  _234
REMARK   81  A    between atoms: _233  and  _236
REMARK   82  A    between atoms: _236  and  _237
REMARK   83  A    between atoms: _237  and  _238
REMARK   84  A    between atoms: _240  and  _242
REMARK   85  A    between atoms: _242  and  _243
REMARK   86  A    between atoms: _242  and  _245
REMARK   87  A    between atoms: _247  and  _249
REMARK   88  A    between atoms: _249  and  _250
REMARK   89  A    between atoms: _252  and  _254
REMARK   90  A    between atoms: _254  and  _255
REMARK   91  A    between atoms: _254  and  _257
REMARK   92  A    between atoms: _257  and  _258
REMARK   93  A    between atoms: _263  and  _265
REMARK   94  A    between atoms: _265  and  _266
REMARK   95  A    between atoms: _269  and  _271
REMARK   96  A    between atoms: _271  and  _272
REMARK   97  A    between atoms: _271  and  _274
REMARK   98  A    between atoms: _277  and  _279
REMARK   99  A    between atoms: _279  and  _280
REMARK  100  A    between atoms: _279  and  _282
REMARK  101  A    between atoms: _282  and  _283
REMARK  102  A    between atoms: _286  and  _288
REMARK  103  A    between atoms: _288  and  _289
REMARK  104  A    between atoms: _288  and  _291
REMARK  105  A    between atoms: _291  and  _292
REMARK  106  A    between atoms: _295  and  _297
REMARK  107  A    between atoms: _297  and  _298
REMARK  108  A    between atoms: _297  and  _300
REMARK  109  A    between atoms: _300  and  _301
REMARK  110  A    between atoms: _306  and  _307
REMARK  111  A    between atoms: _309  and  _311
REMARK  112  A    between atoms: _311  and  _312
REMARK  113  A    between atoms: _311  and  _314
REMARK  114  A    between atoms: _317  and  _319
REMARK  115  A    between atoms: _319  and  _320
REMARK  116  A    between atoms: _319  and  _322
REMARK  117  A    between atoms: _322  and  _323
REMARK  118  A    between atoms: _323  and  _324
REMARK  119  A    between atoms: _324  and  _325
REMARK  120  A    between atoms: _334  and  _336
REMARK  121  A    between atoms: _336  and  _337
REMARK  122  A    between atoms: _336  and  _339
REMARK  123  A    between atoms: _339  and  _340
REMARK  124  A    between atoms: _343  and  _345
REMARK  125  A    between atoms: _345  and  _346
REMARK  126  A    between atoms: _345  and  _348
REMARK  127  A    between atoms: _348  and  _349
REMARK  128  A    between atoms: _352  and  _354
REMARK  129  A    between atoms: _354  and  _355
REMARK  130  A    between atoms: _357  and  _359
REMARK  131  A    between atoms: _359  and  _360
REMARK  132  A    between atoms: _359  and  _362
REMARK  133  A    between atoms: _362  and  _363
REMARK  134  A    between atoms: _366  and  _368
REMARK  135  A    between atoms: _368  and  _369
REMARK  136  A    between atoms: _368  and  _371
REMARK  137  A    between atoms: _371  and  _372
REMARK  138  A    between atoms: _375  and  _377
REMARK  139  A    between atoms: _377  and  _378
REMARK  140  A    between atoms: _377  and  _380
REMARK  141  A    between atoms: _380  and  _381
REMARK  142  A    between atoms: _381  and  _382
REMARK  143  A    between atoms: _382  and  _383
REMARK  144  A    between atoms: _392  and  _394
REMARK  145  A    between atoms: _394  and  _395
REMARK  146  A    between atoms: _394  and  _397
REMARK  147  A    between atoms: _397  and  _398
REMARK  148  A    between atoms: _401  and  _403
REMARK  149  A    between atoms: _403  and  _404
REMARK  150  A    between atoms: _403  and  _406
REMARK  151  A    between atoms: _406  and  _407
REMARK  152  A    between atoms: _410  and  _412
REMARK  153  A    between atoms: _412  and  _413
REMARK  154  A    between atoms: _416  and  _418
REMARK  155  A    between atoms: _418  and  _419
REMARK  156  A    between atoms: _418  and  _421
REMARK  157  A    between atoms: _421  and  _422
REMARK  158  A    between atoms: _424  and  _426
REMARK  159  A    between atoms: _426  and  _427
REMARK  160  A    between atoms: _426  and  _429
REMARK  161  A    between atoms: _429  and  _430
REMARK  162  A    between atoms: _430  and  _431
REMARK  163  A    between atoms: _431  and  _432
REMARK  164  A    between atoms: _432  and  _433
REMARK  165  A    between atoms: _437  and  _439
REMARK  166  A    between atoms: _439  and  _440
REMARK  167  A    between atoms: _439  and  _442
REMARK  168  A    between atoms: _442  and  _443
REMARK  169  A    between atoms: _448  and  _450
REMARK  170  A    between atoms: _450  and  _451
REMARK  171  A    between atoms: _450  and  _453
REMARK  172  A    between atoms: _453  and  _454
REMARK  173  A    between atoms: _454  and  _455
REMARK  174  A    between atoms: _457  and  _459
REMARK  175  A    between atoms: _459  and  _460
REMARK  176  A    between atoms: _459  and  _462
REMARK  177  A    between atoms: _462  and  _463
REMARK  178  A    between atoms: _463  and  _464
REMARK  179  A    between atoms: _467  and  _469
REMARK  180  A    between atoms: _469  and  _470
REMARK  181  A    between atoms: _469  and  _472
REMARK  182  A    between atoms: _475  and  _477
REMARK  183  A    between atoms: _477  and  _478
REMARK  184  A    between atoms: _477  and  _480
REMARK  185  A    between atoms: _480  and  _481
REMARK  186  A    between atoms: _484  and  _486
REMARK  187  A    between atoms: _486  and  _487
REMARK  188  A    between atoms: _486  and  _489
REMARK  189  A    between atoms: _489  and  _490
REMARK  190  A    between atoms: _493  and  _495
REMARK  191  A    between atoms: _495  and  _496
REMARK  192  A    between atoms: _495  and  _498
REMARK  193  A    between atoms: _498  and  _499
REMARK  194  A    between atoms: _502  and  _504
REMARK  195  A    between atoms: _504  and  _505
REMARK  196  A    between atoms: _507  and  _509
REMARK  197  A    between atoms: _509  and  _510
REMARK  198  A    between atoms: _512  and  _514
REMARK  199  A    between atoms: _514  and  _515
REMARK  200  A    between atoms: _514  and  _517
REMARK  201  A    between atoms: _517  and  _518
REMARK  202  A    between atoms: _518  and  _519
REMARK  203  A    between atoms: _522  and  _524
REMARK  204  A    between atoms: _524  and  _525
REMARK  205  A    between atoms: _524  and  _527
REMARK  206  A    between atoms: _527  and  _528
REMARK  207  A    between atoms: _531  and  _533
REMARK  208  A    between atoms: _533  and  _534
REMARK  209  A    between atoms: _533  and  _536
REMARK  210  A    between atoms: _536  and  _537
REMARK  211  A    between atoms: _543  and  _545
REMARK  212  A    between atoms: _545  and  _546
REMARK  213  A    between atoms: _549  and  _551
REMARK  214  A    between atoms: _551  and  _552
REMARK  215  A    between atoms: _551  and  _554
REMARK  216  A    between atoms: _554  and  _555
REMARK  217  A    between atoms: _560  and  _562
REMARK  218  A    between atoms: _562  and  _563
REMARK  219  A    between atoms: _562  and  _565
REMARK  220  A    between atoms: _565  and  _566
REMARK  221  A    between atoms: _571  and  _573
REMARK  222  A    between atoms: _573  and  _574
REMARK  223  A    between atoms: _573  and  _576
REMARK  224  A    between atoms: _576  and  _577
REMARK  225  A    between atoms: _580  and  _582
REMARK  226  A    between atoms: _582  and  _583
REMARK  227  A    between atoms: _582  and  _585
REMARK  228  A    between atoms: _585  and  _586
REMARK  229  A    between atoms: _591  and  _593
REMARK  230  A    between atoms: _593  and  _594
REMARK  231  A    between atoms: _593  and  _596
REMARK  232  A    between atoms: _596  and  _597
REMARK  233  A    between atoms: _597  and  _598
REMARK  234  A    between atoms: _598  and  _599
REMARK  235  A    between atoms: _608  and  _610
REMARK  236  A    between atoms: _610  and  _611
REMARK  237  A    between atoms: _613  and  _615
REMARK  238  A    between atoms: _615  and  _616
REMARK  239  A    between atoms: _615  and  _618
REMARK  240  A    between atoms: _618  and  _619
REMARK  241  A    between atoms: _624  and  _626
REMARK  242  A    between atoms: _626  and  _627
REMARK  243  A    between atoms: _629  and  _631
REMARK  244  A    between atoms: _631  and  _632
REMARK  245  A    between atoms: _635  and  _637
REMARK  246  A    between atoms: _637  and  _638
REMARK  247  A    between atoms: _640  and  _642
REMARK  248  A    between atoms: _642  and  _643
REMARK  249  A    between atoms: _645  and  _647
REMARK  250  A    between atoms: _647  and  _648
REMARK  251  A    between atoms: _651  and  _653
REMARK  252  A    between atoms: _653  and  _654
REMARK  253  A    between atoms: _653  and  _656
REMARK  254  A    between atoms: _656  and  _657
REMARK  255  A    between atoms: _657  and  _658
REMARK  256  A    between atoms: _658  and  _659
REMARK  257  A    between atoms: _668  and  _670
REMARK  258  A    between atoms: _670  and  _671
REMARK  259  A    between atoms: _670  and  _673
REMARK  260  A    between atoms: _673  and  _674
REMARK  261  A    between atoms: _677  and  _679
REMARK  262  A    between atoms: _679  and  _680
REMARK  263  A    between atoms: _679  and  _682
REMARK  264  A    between atoms: _682  and  _683
REMARK                            x       y       z     vdW  Elec       q    Type
REMARK                         _______ _______ _______ _____ _____    ______ ____
ROOT
ATOM      1  O   HOH     1      15.935 -27.166 -31.244  0.00  0.00    +0.000 OA
ENDROOT
TORSDOF 0
